Program Version,EnergyPlus, Version 9.0.1-bb7ca4f0da, YMD=2019.12.18 15:40
! This file shows details about the branches, nodes, and other
! elements of the flow connections.
! This file is intended for use in "debugging" potential problems
! that may also be detected by the program, but may be more easily
! identified by "eye".
! This file is also intended to support software which draws a
! schematic diagram of the HVAC system.
! ===============================================================
! #Nodes,<Number of Unique Nodes>
 #Nodes,371
! <Node>,<NodeNumber>,<Node Name>,<Node Fluid Type>,<# Times Node Referenced After Definition>
 Node,1,BASEVAVBOX TRMLUNIT OUTLET NODE,Air,4
 Node,2,THERMAL ZONE: F1 BUSINESS CENTER RETURN AIR NODE,Air,2
 Node,3,BASEVAVBOX TRMLUNIT-2 OUTLET NODE,Air,4
 Node,4,THERMAL ZONE: F1 CORRIDOR RETURN AIR NODE,Air,2
 Node,5,BASEVAVBOX TRMLUNIT-4 OUTLET NODE,Air,4
 Node,6,THERMAL ZONE: F1 FITNESS CENTER RETURN AIR NODE,Air,2
 Node,7,BASEVAVBOX TRMLUNIT-5 OUTLET NODE,Air,4
 Node,8,THERMAL ZONE: F1 LEASING OFFICE RETURN AIR NODE,Air,2
 Node,9,BASEVAVBOX TRMLUNIT-3 OUTLET NODE,Air,4
 Node,10,THERMAL ZONE: F1 LOUNGE RETURN AIR NODE,Air,2
 Node,11,BASEVAVBOX TRMLUNIT-6 OUTLET NODE,Air,4
 Node,12,THERMAL ZONE: F1 MECHANICAL ROOM RETURN AIR NODE,Air,2
 Node,13,BASEVAVBOX TRMLUNIT-7 OUTLET NODE,Air,4
 Node,14,THERMAL ZONE: F1 RETAIL N-NW RETURN AIR NODE,Air,2
 Node,15,BASEVAVBOX TRMLUNIT-8 OUTLET NODE,Air,4
 Node,16,THERMAL ZONE: F1 RETAIL NE RETURN AIR NODE,Air,2
 Node,17,BASEVAVBOX TRMLUNIT-9 OUTLET NODE,Air,4
 Node,18,THERMAL ZONE: F1 RETAIL SE RETURN AIR NODE,Air,2
 Node,19,BASEVAVBOX TRMLUNIT-10 OUTLET NODE,Air,4
 Node,20,THERMAL ZONE: F1 RETAIL SW RETURN AIR NODE,Air,2
 Node,21,BASEZNSYS1-3 OUTLET NODE,Air,3
 Node,22,THERMAL ZONE: F2-4 1-BED CORE EAST BASEEXHFAN INLET NODE,Air,2
 Node,23,BASEZNSYS1-3 INLET NODE,Air,3
 Node,24,BASEZNSYS1 OUTLET NODE,Air,3
 Node,25,THERMAL ZONE: F2-4 1-BED CORE N BASEEXHFAN INLET NODE,Air,2
 Node,26,BASEZNSYS1 INLET NODE,Air,3
 Node,27,BASEZNSYS1-2 OUTLET NODE,Air,3
 Node,28,THERMAL ZONE: F2-4 1-BED CORE WEST BASEEXHFAN INLET NODE,Air,2
 Node,29,BASEZNSYS1-2 INLET NODE,Air,3
 Node,30,BASEZNSYS1-4 OUTLET NODE,Air,3
 Node,31,THERMAL ZONE: F2-4 1-BED NORTH BASEEXHFAN INLET NODE,Air,2
 Node,32,BASEZNSYS1-4 INLET NODE,Air,3
 Node,33,BASEZNSYS1-5 OUTLET NODE,Air,3
 Node,34,THERMAL ZONE: F2-4 2-BED CORE NE-NW BASEEXHFAN INLET NODE,Air,2
 Node,35,BASEZNSYS1-5 INLET NODE,Air,3
 Node,36,BASEZNSYS1-6 OUTLET NODE,Air,3
 Node,37,THERMAL ZONE: F2-4 2-BED EAST BASEEXHFAN INLET NODE,Air,2
 Node,38,BASEZNSYS1-6 INLET NODE,Air,3
 Node,39,BASEZNSYS1-7 OUTLET NODE,Air,3
 Node,40,THERMAL ZONE: F2-4 2-BED WEST BASEEXHFAN INLET NODE,Air,2
 Node,41,BASEZNSYS1-7 INLET NODE,Air,3
 Node,42,BASEZNSYS1-8 OUTLET NODE,Air,3
 Node,43,THERMAL ZONE: F2-4 3-BED NE BASEEXHFAN INLET NODE,Air,2
 Node,44,BASEZNSYS1-8 INLET NODE,Air,3
 Node,45,BASEZNSYS1-9 OUTLET NODE,Air,3
 Node,46,THERMAL ZONE: F2-4 3-BED NW BASEEXHFAN INLET NODE,Air,2
 Node,47,BASEZNSYS1-9 INLET NODE,Air,3
 Node,48,BASEVAVBOX TRMLUNIT-11 OUTLET NODE,Air,4
 Node,49,THERMAL ZONE: F2-4 CORRIDOR RETURN AIR NODE,Air,2
 Node,50,BASEZNSYS1-10 OUTLET NODE,Air,3
 Node,51,THERMAL ZONE: F2-4 STUDIO SE BASEEXHFAN INLET NODE,Air,2
 Node,52,BASEZNSYS1-10 INLET NODE,Air,3
 Node,53,BASEZNSYS1-11 OUTLET NODE,Air,3
 Node,54,THERMAL ZONE: F2-4 STUDIO SW BASEEXHFAN INLET NODE,Air,2
 Node,55,BASEZNSYS1-11 INLET NODE,Air,3
 Node,56,BASEZNSYS1-14 OUTLET NODE,Air,3
 Node,57,THERMAL ZONE: F5 1-BED CORE EAST BASEEXHFAN INLET NODE,Air,2
 Node,58,BASEZNSYS1-14 INLET NODE,Air,3
 Node,59,BASEZNSYS1-12 OUTLET NODE,Air,3
 Node,60,THERMAL ZONE: F5 1-BED CORE N BASEEXHFAN INLET NODE,Air,2
 Node,61,BASEZNSYS1-12 INLET NODE,Air,3
 Node,62,BASEZNSYS1-13 OUTLET NODE,Air,3
 Node,63,THERMAL ZONE: F5 1-BED CORE WEST BASEEXHFAN INLET NODE,Air,2
 Node,64,BASEZNSYS1-13 INLET NODE,Air,3
 Node,65,BASEZNSYS1-15 OUTLET NODE,Air,3
 Node,66,THERMAL ZONE: F5 1-BED NORTH BASEEXHFAN INLET NODE,Air,2
 Node,67,BASEZNSYS1-15 INLET NODE,Air,3
 Node,68,BASEZNSYS1-16 OUTLET NODE,Air,3
 Node,69,THERMAL ZONE: F5 2-BED CORE NE-NW BASEEXHFAN INLET NODE,Air,2
 Node,70,BASEZNSYS1-16 INLET NODE,Air,3
 Node,71,BASEZNSYS1-17 OUTLET NODE,Air,3
 Node,72,THERMAL ZONE: F5 2-BED EAST BASEEXHFAN INLET NODE,Air,2
 Node,73,BASEZNSYS1-17 INLET NODE,Air,3
 Node,74,BASEZNSYS1-18 OUTLET NODE,Air,3
 Node,75,THERMAL ZONE: F5 2-BED WEST BASEEXHFAN INLET NODE,Air,2
 Node,76,BASEZNSYS1-18 INLET NODE,Air,3
 Node,77,BASEZNSYS1-19 OUTLET NODE,Air,3
 Node,78,THERMAL ZONE: F5 3-BED NE BASEEXHFAN INLET NODE,Air,2
 Node,79,BASEZNSYS1-19 INLET NODE,Air,3
 Node,80,BASEZNSYS1-20 OUTLET NODE,Air,3
 Node,81,THERMAL ZONE: F5 3-BED NW BASEEXHFAN INLET NODE,Air,2
 Node,82,BASEZNSYS1-20 INLET NODE,Air,3
 Node,83,BASEVAVBOX TRMLUNIT-12 OUTLET NODE,Air,4
 Node,84,THERMAL ZONE: F5 CORRIDOR RETURN AIR NODE,Air,2
 Node,85,BASEZNSYS1-21 OUTLET NODE,Air,3
 Node,86,THERMAL ZONE: F5 STUDIO SE BASEEXHFAN INLET NODE,Air,2
 Node,87,BASEZNSYS1-21 INLET NODE,Air,3
 Node,88,BASEZNSYS1-22 OUTLET NODE,Air,3
 Node,89,THERMAL ZONE: F5 STUDIO SW BASEEXHFAN INLET NODE,Air,2
 Node,90,BASEZNSYS1-22 INLET NODE,Air,3
 Node,91,THERMAL ZONE: PARKING GARAGE BASEEXHFAN INLET NODE,Air,2
 Node,92,BASESYS5 FAN OUTLET NODE,Air,10
 Node,93,BASEAIRSYS5 DEMAND SIDE (SUPPLY AIR) INLET NODE,Air,3
 Node,94,BASESYS5 FAN-2 OUTLET NODE,Air,10
 Node,95,BASEAIRSYS5-2 DEMAND SIDE (SUPPLY AIR) INLET NODE,Air,3
 Node,96,BASESYS5 FAN-3 OUTLET NODE,Air,10
 Node,97,BASEAIRSYS5-3 DEMAND SIDE (SUPPLY AIR) INLET NODE,Air,3
 Node,98,BASEAIRSYS5 SUPPLY SIDE (RETURN AIR) INLET NODE,Air,3
 Node,99,BASESYS5 OACTRL OA SYSTEM MIXED AIR NODE,Air,6
 Node,100,BASESYS5 COILCLG OUTLET NODE,Air,6
 Node,101,BASESYS5 COILHTG AIR OUTLET NODE,Air,8
 Node,102,BASEAIRSYS5-2 SUPPLY SIDE (RETURN AIR) INLET NODE,Air,3
 Node,103,BASESYS5 OACTRL-2 OA SYSTEM MIXED AIR NODE,Air,6
 Node,104,BASESYS5 COILCLG-2 OUTLET NODE,Air,6
 Node,105,BASESYS5 COILHTG-2 AIR OUTLET NODE,Air,8
 Node,106,BASEAIRSYS5-3 SUPPLY SIDE (RETURN AIR) INLET NODE,Air,3
 Node,107,BASESYS5 OACTRL-3 OA SYSTEM MIXED AIR NODE,Air,6
 Node,108,BASESYS5 COILCLG-3 OUTLET NODE,Air,6
 Node,109,BASESYS5 COILHTG-3 AIR OUTLET NODE,Air,8
 Node,110,BASEHWSYSTEM SUPPLY INLET NODE,Water,2
 Node,111,BASEHWSYSTEM SUPPLY INLET PIPE NODE,Water,1
 Node,112,BASEHWSYSTEM SUPPLY SPLITTER OUTLET NODE 1,Water,1
 Node,113,BASE HW PUMP OUTLET NODE,Water,3
 Node,114,BASE BLR OUTLET NODE,Water,1
 Node,115,BASEHWSYSTEM SUPPLY SPLITTER OUTLET NODE 2,Water,1
 Node,116,BASE HW PUMP-2 OUTLET NODE,Water,3
 Node,117,BASE BLR-2 OUTLET NODE,Water,1
 Node,118,BASEHWSYSTEM SUPPLY OUTLET PIPE NODE,Water,1
 Node,119,BASEHWSYSTEM SUPPLY MIXER OUTLET NODE,Water,4
 Node,120,BASEHWSYSTEM DEMAND INLET NODE,Water,2
 Node,121,BASEHWSYSTEM DEMAND INLET PIPE NODE,Water,1
 Node,122,BASEHWSYSTEM DEMAND SPLITTER OUTLET NODE 1,Water,2
 Node,123,BASESYS5 COILHTG WATER OUTLET NODE,Water,1
 Node,124,BASEHWSYSTEM DEMAND SPLITTER OUTLET NODE 2,Water,2
 Node,125,BASESYS5 COILHTG-2 WATER OUTLET NODE,Water,1
 Node,126,BASEHWSYSTEM DEMAND SPLITTER OUTLET NODE 3,Water,2
 Node,127,BASESYS5 COILHTG-3 WATER OUTLET NODE,Water,1
 Node,128,BASEHWSYSTEM DEMAND SPLITTER OUTLET NODE 4,Water,1
 Node,129,BASEVAVBOX COILHTG WATER OUTLET NODE,Water,1
 Node,130,BASEHWSYSTEM DEMAND SPLITTER OUTLET NODE 5,Water,1
 Node,131,BASEVAVBOX COILHTG-2 WATER OUTLET NODE,Water,1
 Node,132,BASEHWSYSTEM DEMAND SPLITTER OUTLET NODE 6,Water,1
 Node,133,BASEVAVBOX COILHTG-3 WATER OUTLET NODE,Water,1
 Node,134,BASEHWSYSTEM DEMAND SPLITTER OUTLET NODE 7,Water,1
 Node,135,BASEVAVBOX COILHTG-4 WATER OUTLET NODE,Water,1
 Node,136,BASEHWSYSTEM DEMAND SPLITTER OUTLET NODE 8,Water,1
 Node,137,BASEVAVBOX COILHTG-5 WATER OUTLET NODE,Water,1
 Node,138,BASEHWSYSTEM DEMAND SPLITTER OUTLET NODE 9,Water,1
 Node,139,BASEVAVBOX COILHTG-6 WATER OUTLET NODE,Water,1
 Node,140,BASEHWSYSTEM DEMAND SPLITTER OUTLET NODE 10,Water,1
 Node,141,BASEVAVBOX COILHTG-7 WATER OUTLET NODE,Water,1
 Node,142,BASEHWSYSTEM DEMAND SPLITTER OUTLET NODE 11,Water,1
 Node,143,BASEVAVBOX COILHTG-8 WATER OUTLET NODE,Water,1
 Node,144,BASEHWSYSTEM DEMAND SPLITTER OUTLET NODE 12,Water,1
 Node,145,BASEVAVBOX COILHTG-9 WATER OUTLET NODE,Water,1
 Node,146,BASEHWSYSTEM DEMAND SPLITTER OUTLET NODE 13,Water,1
 Node,147,BASEVAVBOX COILHTG-10 WATER OUTLET NODE,Water,1
 Node,148,BASEHWSYSTEM DEMAND SPLITTER OUTLET NODE 14,Water,1
 Node,149,BASEVAVBOX COILHTG-11 WATER OUTLET NODE,Water,1
 Node,150,BASEHWSYSTEM DEMAND SPLITTER OUTLET NODE 15,Water,1
 Node,151,BASEVAVBOX COILHTG-12 WATER OUTLET NODE,Water,1
 Node,152,BASEHWSYSTEM DEMAND BYPASS PIPE INLET NODE,Water,1
 Node,153,BASEHWSYSTEM DEMAND BYPASS PIPE OUTLET NODE,Water,1
 Node,154,BASEHWSYSTEM DEMAND OUTLET PIPE NODE,Water,1
 Node,155,BASEHWSYSTEM DEMAND MIXER OUTLET NODE,Water,2
 Node,156,NONRESBASEELECSHWSYSTEM SUPPLY INLET NODE,Water,2
 Node,157,{C73C7BEB-718F-477A-AC21-8051619F5EC2} OUTLET NODE,Water,1
 Node,158,NONRESBASEELECSHWSYSTEM SUPPLY SPLITTER OUTLET NODE 1,Water,1
 Node,159,NONRESBASEELECWATERHEATER SUPPLY OUTLET NODE,Water,1
 Node,160,NONRESBASEELECSHWSYSTEM SUPPLY OUTLET PIPE NODE,Water,1
 Node,161,NONRESBASEELECSHWSYSTEM SUPPLY MIXER OUTLET NODE,Water,4
 Node,162,NONRESBASEELECSHWSYSTEM DEMAND INLET NODE,Water,2
 Node,163,NONRESBASEELECSHWSYSTEM DEMAND INLET PIPE NODE,Water,1
 Node,164,NONRESBASEELECSHWSYSTEM DEMAND SPLITTER OUTLET NODE 1,Water,1
 Node,165,F1 BUSINESS CENTER WATER USE CONNECTION OUTLET NODE,Water,1
 Node,166,NONRESBASEELECSHWSYSTEM DEMAND SPLITTER OUTLET NODE 2,Water,1
 Node,167,F1 ELEVATOR CORE WATER USE CONNECTION OUTLET NODE,Water,1
 Node,168,NONRESBASEELECSHWSYSTEM DEMAND SPLITTER OUTLET NODE 3,Water,1
 Node,169,F1 ELEVATOR N WATER USE CONNECTION OUTLET NODE,Water,1
 Node,170,NONRESBASEELECSHWSYSTEM DEMAND SPLITTER OUTLET NODE 4,Water,1
 Node,171,F1 ELEVATOR S WATER USE CONNECTION OUTLET NODE,Water,1
 Node,172,NONRESBASEELECSHWSYSTEM DEMAND SPLITTER OUTLET NODE 5,Water,1
 Node,173,F1 LEASING OFFICE WATER USE CONNECTION OUTLET NODE,Water,1
 Node,174,NONRESBASEELECSHWSYSTEM DEMAND SPLITTER OUTLET NODE 6,Water,1
 Node,175,F1 MECHANICAL ROOM WATER USE CONNECTION OUTLET NODE,Water,1
 Node,176,NONRESBASEELECSHWSYSTEM DEMAND SPLITTER OUTLET NODE 7,Water,1
 Node,177,F1 RETAIL N CORE WATER USE CONNECTION OUTLET NODE,Water,1
 Node,178,NONRESBASEELECSHWSYSTEM DEMAND SPLITTER OUTLET NODE 8,Water,1
 Node,179,F1 RETAIL NE CORE WATER USE CONNECTION OUTLET NODE,Water,1
 Node,180,NONRESBASEELECSHWSYSTEM DEMAND SPLITTER OUTLET NODE 9,Water,1
 Node,181,F1 RETAIL NE INNER WATER USE CONNECTION OUTLET NODE,Water,1
 Node,182,NONRESBASEELECSHWSYSTEM DEMAND SPLITTER OUTLET NODE 10,Water,1
 Node,183,F1 RETAIL NE OUTER WATER USE CONNECTION OUTLET NODE,Water,1
 Node,184,NONRESBASEELECSHWSYSTEM DEMAND SPLITTER OUTLET NODE 11,Water,1
 Node,185,F1 RETAIL NW INNER CORE WATER USE CONNECTION OUTLET NODE,Water,1
 Node,186,NONRESBASEELECSHWSYSTEM DEMAND SPLITTER OUTLET NODE 12,Water,1
 Node,187,F1 RETAIL NW OUTER WATER USE CONNECTION OUTLET NODE,Water,1
 Node,188,NONRESBASEELECSHWSYSTEM DEMAND SPLITTER OUTLET NODE 13,Water,1
 Node,189,F1 RETAIL NW OUTER CORE WATER USE CONNECTION OUTLET NODE,Water,1
 Node,190,NONRESBASEELECSHWSYSTEM DEMAND SPLITTER OUTLET NODE 14,Water,1
 Node,191,F1 RETAIL SE BOTTOM WATER USE CONNECTION OUTLET NODE,Water,1
 Node,192,NONRESBASEELECSHWSYSTEM DEMAND SPLITTER OUTLET NODE 15,Water,1
 Node,193,F1 RETAIL SE TOP WATER USE CONNECTION OUTLET NODE,Water,1
 Node,194,NONRESBASEELECSHWSYSTEM DEMAND SPLITTER OUTLET NODE 16,Water,1
 Node,195,F1 RETAIL SW BOTTOM WATER USE CONNECTION OUTLET NODE,Water,1
 Node,196,NONRESBASEELECSHWSYSTEM DEMAND SPLITTER OUTLET NODE 17,Water,1
 Node,197,F1 RETAIL SW CORE WATER USE CONNECTION OUTLET NODE,Water,1
 Node,198,NONRESBASEELECSHWSYSTEM DEMAND SPLITTER OUTLET NODE 18,Water,1
 Node,199,F1 RETAIL SW TOP WATER USE CONNECTION OUTLET NODE,Water,1
 Node,200,NONRESBASEELECSHWSYSTEM DEMAND SPLITTER OUTLET NODE 19,Water,1
 Node,201,F2-4 ELEVATOR CORE WATER USE CONNECTION OUTLET NODE,Water,1
 Node,202,NONRESBASEELECSHWSYSTEM DEMAND SPLITTER OUTLET NODE 20,Water,1
 Node,203,F2-4 ELEVATOR N WATER USE CONNECTION OUTLET NODE,Water,1
 Node,204,NONRESBASEELECSHWSYSTEM DEMAND SPLITTER OUTLET NODE 21,Water,1
 Node,205,F2-4 ELEVATOR S WATER USE CONNECTION OUTLET NODE,Water,1
 Node,206,NONRESBASEELECSHWSYSTEM DEMAND SPLITTER OUTLET NODE 22,Water,1
 Node,207,F5 ELEVATOR CORE WATER USE CONNECTION OUTLET NODE,Water,1
 Node,208,NONRESBASEELECSHWSYSTEM DEMAND SPLITTER OUTLET NODE 23,Water,1
 Node,209,F5 ELEVATOR N WATER USE CONNECTION OUTLET NODE,Water,1
 Node,210,NONRESBASEELECSHWSYSTEM DEMAND SPLITTER OUTLET NODE 24,Water,1
 Node,211,F5 ELEVATOR S WATER USE CONNECTION OUTLET NODE,Water,1
 Node,212,NONRESBASEELECSHWSYSTEM DEMAND BYPASS PIPE INLET NODE,Water,1
 Node,213,NONRESBASEELECSHWSYSTEM DEMAND BYPASS PIPE OUTLET NODE,Water,1
 Node,214,NONRESBASEELECSHWSYSTEM DEMAND OUTLET PIPE NODE,Water,1
 Node,215,NONRESBASEELECSHWSYSTEM DEMAND MIXER OUTLET NODE,Water,2
 Node,216,NONRESBASEGASSHWSYSTEM SUPPLY INLET NODE,Water,2
 Node,217,{BDF7A154-F49A-4214-B3F6-CBFA2D9831EF} OUTLET NODE,Water,1
 Node,218,NONRESBASEGASSHWSYSTEM SUPPLY SPLITTER OUTLET NODE 1,Water,1
 Node,219,NONRESBASEGASWATERHEATER SUPPLY OUTLET NODE,Water,1
 Node,220,NONRESBASEGASSHWSYSTEM SUPPLY OUTLET PIPE NODE,Water,1
 Node,221,NONRESBASEGASSHWSYSTEM SUPPLY MIXER OUTLET NODE,Water,4
 Node,222,NONRESBASEGASSHWSYSTEM DEMAND INLET NODE,Water,2
 Node,223,NONRESBASEGASSHWSYSTEM DEMAND INLET PIPE NODE,Water,1
 Node,224,NONRESBASEGASSHWSYSTEM DEMAND SPLITTER OUTLET NODE 1,Water,1
 Node,225,F1 LOUNGE WATER USE CONNECTION OUTLET NODE,Water,1
 Node,226,NONRESBASEGASSHWSYSTEM DEMAND SPLITTER OUTLET NODE 2,Water,1
 Node,227,F1 FITNESS CENTER WATER USE CONNECTION OUTLET NODE,Water,1
 Node,228,NONRESBASEGASSHWSYSTEM DEMAND SPLITTER OUTLET NODE 3,Water,1
 Node,229,F2-4 LAUNDRY WATER USE CONNECTION OUTLET NODE,Water,1
 Node,230,NONRESBASEGASSHWSYSTEM DEMAND SPLITTER OUTLET NODE 4,Water,1
 Node,231,F5 LAUNDRY WATER USE CONNECTION OUTLET NODE,Water,1
 Node,232,NONRESBASEGASSHWSYSTEM DEMAND BYPASS PIPE INLET NODE,Water,1
 Node,233,NONRESBASEGASSHWSYSTEM DEMAND BYPASS PIPE OUTLET NODE,Water,1
 Node,234,NONRESBASEGASSHWSYSTEM DEMAND OUTLET PIPE NODE,Water,1
 Node,235,NONRESBASEGASSHWSYSTEM DEMAND MIXER OUTLET NODE,Water,2
 Node,236,{705C6470-05B3-4F54-983E-1008A8D536FD},Air,0
 Node,237,{E34661E3-E95C-438E-9053-996C89A74130},Air,0
 Node,238,{431D2DBB-BAE4-481F-B8A0-CD126B4F035A},Air,0
 Node,239,{BEA4BADB-3374-49E9-9630-B9B1B0DBB3D2},Air,0
 Node,240,{A3F838C9-69D4-4536-B2A5-867F9838AEE7},Air,0
 Node,241,{C648F68F-17D1-4EB0-AE02-BB69D24C2ED4},Air,0
 Node,242,{3EBCBA41-F210-4BEF-8BD1-AE24EEC147CB},Air,0
 Node,243,{8F600CAD-8F75-422C-9051-B2BD832E407E},Air,0
 Node,244,{29C09F87-5FDE-4461-88A4-DA07870AEE6F},Air,0
 Node,245,{D209F562-F094-4722-89B3-761445369199},Air,0
 Node,246,{EE11673A-8AD2-4347-BA52-D5ADA07FD6AC},Air,0
 Node,247,{391A0E69-7BDA-498E-B15C-057101BD505B},Air,0
 Node,248,{77C6BA8D-D603-455B-A7BB-6AFFF60A540B},Air,0
 Node,249,{04AF4C1F-3950-4129-A8E3-F231716C4127},Air,0
 Node,250,{9445A2A6-979C-4F4D-B8F0-766E1B6C2DD3},Air,0
 Node,251,{D5095729-5FD8-4841-A6F8-401BD41FCD67},Air,0
 Node,252,{0E22577C-2FFC-45B4-80F6-4880E3E8ACDF},Air,0
 Node,253,{299D3EBE-6DBD-40DF-A6B1-DC4862BE22BB},Air,0
 Node,254,{964C5218-928C-4F30-86A7-B01C71C099A3},Air,0
 Node,255,{A399FBA8-C259-4407-8E97-E0FDD3101CE5},Air,0
 Node,256,{E53CE916-4F9C-4F9E-814C-7C5C52EE760D},Air,0
 Node,257,{E4176D42-C3F9-4AF1-81E4-FDA6733E0878},Air,0
 Node,258,{9C77F1EC-0EFD-47D6-8F08-6EEBBF6C77C5},Air,0
 Node,259,{5FE729A2-5F04-48FF-9D1F-26524175DD98},Air,0
 Node,260,{CE0FF678-86A3-45FC-9481-B4E8EB8CC6FB},Air,0
 Node,261,{CD03E688-1928-44FA-89E9-F2B8EDD74138},Air,0
 Node,262,{9670B40C-25A1-4593-9241-4A4EA6FD510B},Air,0
 Node,263,{FC41B9FE-9431-4132-9A54-92C6BACFDBA2},Air,0
 Node,264,{7E0AC248-9860-4017-BF24-38F11C2EA9CA},Air,0
 Node,265,{98A8572A-068B-4ACC-A4D7-7210E281A9DF},Air,0
 Node,266,{DE2890FE-6906-4991-BB91-7007D7F6B904},Air,0
 Node,267,{8DE38A97-2EC8-43E7-90AA-433A2E40DAF9},Air,0
 Node,268,{B1E179A9-AE9E-4C64-A1BD-F92B56BEFC15},Air,0
 Node,269,{F93744C4-CEE1-41BE-BB81-0B9D4969F501},Air,0
 Node,270,{67CD7E33-E4B4-4C31-B2CE-32AC550D66EB},Air,0
 Node,271,BASEAIRSYS5 ZONE MIXER OUTLET NODE,Air,2
 Node,272,BASEAIRSYS5-2 ZONE MIXER OUTLET NODE,Air,2
 Node,273,BASEAIRSYS5-3 ZONE MIXER OUTLET NODE,Air,2
 Node,274,BASESYS5 OACTRL OA SYSTEM OA NODE,Air,2
 Node,275,BASESYS5 OACTRL-2 OA SYSTEM OA NODE,Air,2
 Node,276,BASESYS5 OACTRL-3 OA SYSTEM OA NODE,Air,2
 Node,277,MODEL OUTDOOR AIR NODE,Air,0
 Node,278,BASEAIRSYS5 ZONE SPLITTER OUTLET NODE 1,Air,1
 Node,279,BASEAIRSYS5 ZONE SPLITTER OUTLET NODE 2,Air,1
 Node,280,BASEAIRSYS5 ZONE SPLITTER OUTLET NODE 3,Air,1
 Node,281,BASEAIRSYS5 ZONE SPLITTER OUTLET NODE 4,Air,1
 Node,282,BASEAIRSYS5 ZONE SPLITTER OUTLET NODE 5,Air,1
 Node,283,BASEAIRSYS5 ZONE SPLITTER OUTLET NODE 6,Air,1
 Node,284,BASEAIRSYS5 ZONE SPLITTER OUTLET NODE 7,Air,1
 Node,285,BASEAIRSYS5 ZONE SPLITTER OUTLET NODE 8,Air,1
 Node,286,BASEAIRSYS5 ZONE SPLITTER OUTLET NODE 9,Air,1
 Node,287,BASEAIRSYS5 ZONE SPLITTER OUTLET NODE 10,Air,1
 Node,288,BASEAIRSYS5-2 ZONE SPLITTER OUTLET NODE 1,Air,1
 Node,289,BASEAIRSYS5-3 ZONE SPLITTER OUTLET NODE 1,Air,1
 Node,290,BASEVAVBOX TRMLUNIT DAMPER OUTLET,Air,1
 Node,291,BASEVAVBOX TRMLUNIT-2 DAMPER OUTLET,Air,1
 Node,292,BASEVAVBOX TRMLUNIT-4 DAMPER OUTLET,Air,1
 Node,293,BASEVAVBOX TRMLUNIT-5 DAMPER OUTLET,Air,1
 Node,294,BASEVAVBOX TRMLUNIT-3 DAMPER OUTLET,Air,1
 Node,295,BASEVAVBOX TRMLUNIT-6 DAMPER OUTLET,Air,1
 Node,296,BASEVAVBOX TRMLUNIT-7 DAMPER OUTLET,Air,1
 Node,297,BASEVAVBOX TRMLUNIT-8 DAMPER OUTLET,Air,1
 Node,298,BASEVAVBOX TRMLUNIT-9 DAMPER OUTLET,Air,1
 Node,299,BASEVAVBOX TRMLUNIT-10 DAMPER OUTLET,Air,1
 Node,300,BASEVAVBOX TRMLUNIT-11 DAMPER OUTLET,Air,1
 Node,301,BASEVAVBOX TRMLUNIT-12 DAMPER OUTLET,Air,1
 Node,302,THERMAL ZONE: F2-4 1-BED CORE EAST BASEEXHFAN OUTLET NODE,Air,0
 Node,303,THERMAL ZONE: F2-4 1-BED CORE N BASEEXHFAN OUTLET NODE,Air,0
 Node,304,THERMAL ZONE: F2-4 1-BED CORE WEST BASEEXHFAN OUTLET NODE,Air,0
 Node,305,THERMAL ZONE: F2-4 1-BED NORTH BASEEXHFAN OUTLET NODE,Air,0
 Node,306,THERMAL ZONE: F2-4 2-BED CORE NE-NW BASEEXHFAN OUTLET NODE,Air,0
 Node,307,THERMAL ZONE: F2-4 2-BED EAST BASEEXHFAN OUTLET NODE,Air,0
 Node,308,THERMAL ZONE: F2-4 2-BED WEST BASEEXHFAN OUTLET NODE,Air,0
 Node,309,THERMAL ZONE: F2-4 3-BED NE BASEEXHFAN OUTLET NODE,Air,0
 Node,310,THERMAL ZONE: F2-4 3-BED NW BASEEXHFAN OUTLET NODE,Air,0
 Node,311,THERMAL ZONE: F2-4 STUDIO SE BASEEXHFAN OUTLET NODE,Air,0
 Node,312,THERMAL ZONE: F2-4 STUDIO SW BASEEXHFAN OUTLET NODE,Air,0
 Node,313,THERMAL ZONE: F5 1-BED CORE EAST BASEEXHFAN OUTLET NODE,Air,0
 Node,314,THERMAL ZONE: F5 1-BED CORE N BASEEXHFAN OUTLET NODE,Air,0
 Node,315,THERMAL ZONE: F5 1-BED CORE WEST BASEEXHFAN OUTLET NODE,Air,0
 Node,316,THERMAL ZONE: F5 1-BED NORTH BASEEXHFAN OUTLET NODE,Air,0
 Node,317,THERMAL ZONE: F5 2-BED CORE NE-NW BASEEXHFAN OUTLET NODE,Air,0
 Node,318,THERMAL ZONE: F5 2-BED EAST BASEEXHFAN OUTLET NODE,Air,0
 Node,319,THERMAL ZONE: F5 2-BED WEST BASEEXHFAN OUTLET NODE,Air,0
 Node,320,THERMAL ZONE: F5 3-BED NE BASEEXHFAN OUTLET NODE,Air,0
 Node,321,THERMAL ZONE: F5 3-BED NW BASEEXHFAN OUTLET NODE,Air,0
 Node,322,THERMAL ZONE: F5 STUDIO SE BASEEXHFAN OUTLET NODE,Air,0
 Node,323,THERMAL ZONE: F5 STUDIO SW BASEEXHFAN OUTLET NODE,Air,0
 Node,324,THERMAL ZONE: PARKING GARAGE BASEEXHFAN OUTLET NODE,Air,0
 Node,325,BASEZNSYS1-3 HEATING COIL OUTLET NODE,Air,1
 Node,326,BASEZNSYS1 HEATING COIL OUTLET NODE,Air,1
 Node,327,BASEZNSYS1-2 HEATING COIL OUTLET NODE,Air,1
 Node,328,BASEZNSYS1-4 HEATING COIL OUTLET NODE,Air,1
 Node,329,BASEZNSYS1-5 HEATING COIL OUTLET NODE,Air,1
 Node,330,BASEZNSYS1-6 HEATING COIL OUTLET NODE,Air,1
 Node,331,BASEZNSYS1-7 HEATING COIL OUTLET NODE,Air,1
 Node,332,BASEZNSYS1-8 HEATING COIL OUTLET NODE,Air,1
 Node,333,BASEZNSYS1-9 HEATING COIL OUTLET NODE,Air,1
 Node,334,BASEZNSYS1-10 HEATING COIL OUTLET NODE,Air,1
 Node,335,BASEZNSYS1-11 HEATING COIL OUTLET NODE,Air,1
 Node,336,BASEZNSYS1-14 HEATING COIL OUTLET NODE,Air,1
 Node,337,BASEZNSYS1-12 HEATING COIL OUTLET NODE,Air,1
 Node,338,BASEZNSYS1-13 HEATING COIL OUTLET NODE,Air,1
 Node,339,BASEZNSYS1-15 HEATING COIL OUTLET NODE,Air,1
 Node,340,BASEZNSYS1-16 HEATING COIL OUTLET NODE,Air,1
 Node,341,BASEZNSYS1-17 HEATING COIL OUTLET NODE,Air,1
 Node,342,BASEZNSYS1-18 HEATING COIL OUTLET NODE,Air,1
 Node,343,BASEZNSYS1-19 HEATING COIL OUTLET NODE,Air,1
 Node,344,BASEZNSYS1-20 HEATING COIL OUTLET NODE,Air,1
 Node,345,BASEZNSYS1-21 HEATING COIL OUTLET NODE,Air,1
 Node,346,BASEZNSYS1-22 HEATING COIL OUTLET NODE,Air,1
 Node,347,BASEZNSYS1-3 COOLING COIL OUTLET NODE,Air,1
 Node,348,BASEZNSYS1 COOLING COIL OUTLET NODE,Air,1
 Node,349,BASEZNSYS1-2 COOLING COIL OUTLET NODE,Air,1
 Node,350,BASEZNSYS1-4 COOLING COIL OUTLET NODE,Air,1
 Node,351,BASEZNSYS1-5 COOLING COIL OUTLET NODE,Air,1
 Node,352,BASEZNSYS1-6 COOLING COIL OUTLET NODE,Air,1
 Node,353,BASEZNSYS1-7 COOLING COIL OUTLET NODE,Air,1
 Node,354,BASEZNSYS1-8 COOLING COIL OUTLET NODE,Air,1
 Node,355,BASEZNSYS1-9 COOLING COIL OUTLET NODE,Air,1
 Node,356,BASEZNSYS1-10 COOLING COIL OUTLET NODE,Air,1
 Node,357,BASEZNSYS1-11 COOLING COIL OUTLET NODE,Air,1
 Node,358,BASEZNSYS1-14 COOLING COIL OUTLET NODE,Air,1
 Node,359,BASEZNSYS1-12 COOLING COIL OUTLET NODE,Air,1
 Node,360,BASEZNSYS1-13 COOLING COIL OUTLET NODE,Air,1
 Node,361,BASEZNSYS1-15 COOLING COIL OUTLET NODE,Air,1
 Node,362,BASEZNSYS1-16 COOLING COIL OUTLET NODE,Air,1
 Node,363,BASEZNSYS1-17 COOLING COIL OUTLET NODE,Air,1
 Node,364,BASEZNSYS1-18 COOLING COIL OUTLET NODE,Air,1
 Node,365,BASEZNSYS1-19 COOLING COIL OUTLET NODE,Air,1
 Node,366,BASEZNSYS1-20 COOLING COIL OUTLET NODE,Air,1
 Node,367,BASEZNSYS1-21 COOLING COIL OUTLET NODE,Air,1
 Node,368,BASEZNSYS1-22 COOLING COIL OUTLET NODE,Air,1
 Node,369,BASESYS5 OACTRL OA SYSTEM RELIEF NODE,Air,1
 Node,370,BASESYS5 OACTRL-2 OA SYSTEM RELIEF NODE,Air,1
 Node,371,BASESYS5 OACTRL-3 OA SYSTEM RELIEF NODE,Air,1
! ===============================================================
! Suspicious nodes have 0 references.  It is normal for some nodes, however.
! Listing nodes with 0 references (culled from previous list):
! <Suspicious Node>,<NodeNumber>,<Node Name>,<Node Fluid Type>,<# Times Node Referenced After Definition>
 Suspicious Node,236,{705C6470-05B3-4F54-983E-1008A8D536FD},Air,0
 Suspicious Node,237,{E34661E3-E95C-438E-9053-996C89A74130},Air,0
 Suspicious Node,238,{431D2DBB-BAE4-481F-B8A0-CD126B4F035A},Air,0
 Suspicious Node,239,{BEA4BADB-3374-49E9-9630-B9B1B0DBB3D2},Air,0
 Suspicious Node,240,{A3F838C9-69D4-4536-B2A5-867F9838AEE7},Air,0
 Suspicious Node,241,{C648F68F-17D1-4EB0-AE02-BB69D24C2ED4},Air,0
 Suspicious Node,242,{3EBCBA41-F210-4BEF-8BD1-AE24EEC147CB},Air,0
 Suspicious Node,243,{8F600CAD-8F75-422C-9051-B2BD832E407E},Air,0
 Suspicious Node,244,{29C09F87-5FDE-4461-88A4-DA07870AEE6F},Air,0
 Suspicious Node,245,{D209F562-F094-4722-89B3-761445369199},Air,0
 Suspicious Node,246,{EE11673A-8AD2-4347-BA52-D5ADA07FD6AC},Air,0
 Suspicious Node,247,{391A0E69-7BDA-498E-B15C-057101BD505B},Air,0
 Suspicious Node,248,{77C6BA8D-D603-455B-A7BB-6AFFF60A540B},Air,0
 Suspicious Node,249,{04AF4C1F-3950-4129-A8E3-F231716C4127},Air,0
 Suspicious Node,250,{9445A2A6-979C-4F4D-B8F0-766E1B6C2DD3},Air,0
 Suspicious Node,251,{D5095729-5FD8-4841-A6F8-401BD41FCD67},Air,0
 Suspicious Node,252,{0E22577C-2FFC-45B4-80F6-4880E3E8ACDF},Air,0
 Suspicious Node,253,{299D3EBE-6DBD-40DF-A6B1-DC4862BE22BB},Air,0
 Suspicious Node,254,{964C5218-928C-4F30-86A7-B01C71C099A3},Air,0
 Suspicious Node,255,{A399FBA8-C259-4407-8E97-E0FDD3101CE5},Air,0
 Suspicious Node,256,{E53CE916-4F9C-4F9E-814C-7C5C52EE760D},Air,0
 Suspicious Node,257,{E4176D42-C3F9-4AF1-81E4-FDA6733E0878},Air,0
 Suspicious Node,258,{9C77F1EC-0EFD-47D6-8F08-6EEBBF6C77C5},Air,0
 Suspicious Node,259,{5FE729A2-5F04-48FF-9D1F-26524175DD98},Air,0
 Suspicious Node,260,{CE0FF678-86A3-45FC-9481-B4E8EB8CC6FB},Air,0
 Suspicious Node,261,{CD03E688-1928-44FA-89E9-F2B8EDD74138},Air,0
 Suspicious Node,262,{9670B40C-25A1-4593-9241-4A4EA6FD510B},Air,0
 Suspicious Node,263,{FC41B9FE-9431-4132-9A54-92C6BACFDBA2},Air,0
 Suspicious Node,264,{7E0AC248-9860-4017-BF24-38F11C2EA9CA},Air,0
 Suspicious Node,265,{98A8572A-068B-4ACC-A4D7-7210E281A9DF},Air,0
 Suspicious Node,266,{DE2890FE-6906-4991-BB91-7007D7F6B904},Air,0
 Suspicious Node,267,{8DE38A97-2EC8-43E7-90AA-433A2E40DAF9},Air,0
 Suspicious Node,268,{B1E179A9-AE9E-4C64-A1BD-F92B56BEFC15},Air,0
 Suspicious Node,269,{F93744C4-CEE1-41BE-BB81-0B9D4969F501},Air,0
 Suspicious Node,270,{67CD7E33-E4B4-4C31-B2CE-32AC550D66EB},Air,0
 Suspicious Node,277,MODEL OUTDOOR AIR NODE,Air,0
 Suspicious Node,302,THERMAL ZONE: F2-4 1-BED CORE EAST BASEEXHFAN OUTLET NODE,Air,0
 Suspicious Node,303,THERMAL ZONE: F2-4 1-BED CORE N BASEEXHFAN OUTLET NODE,Air,0
 Suspicious Node,304,THERMAL ZONE: F2-4 1-BED CORE WEST BASEEXHFAN OUTLET NODE,Air,0
 Suspicious Node,305,THERMAL ZONE: F2-4 1-BED NORTH BASEEXHFAN OUTLET NODE,Air,0
 Suspicious Node,306,THERMAL ZONE: F2-4 2-BED CORE NE-NW BASEEXHFAN OUTLET NODE,Air,0
 Suspicious Node,307,THERMAL ZONE: F2-4 2-BED EAST BASEEXHFAN OUTLET NODE,Air,0
 Suspicious Node,308,THERMAL ZONE: F2-4 2-BED WEST BASEEXHFAN OUTLET NODE,Air,0
 Suspicious Node,309,THERMAL ZONE: F2-4 3-BED NE BASEEXHFAN OUTLET NODE,Air,0
 Suspicious Node,310,THERMAL ZONE: F2-4 3-BED NW BASEEXHFAN OUTLET NODE,Air,0
 Suspicious Node,311,THERMAL ZONE: F2-4 STUDIO SE BASEEXHFAN OUTLET NODE,Air,0
 Suspicious Node,312,THERMAL ZONE: F2-4 STUDIO SW BASEEXHFAN OUTLET NODE,Air,0
 Suspicious Node,313,THERMAL ZONE: F5 1-BED CORE EAST BASEEXHFAN OUTLET NODE,Air,0
 Suspicious Node,314,THERMAL ZONE: F5 1-BED CORE N BASEEXHFAN OUTLET NODE,Air,0
 Suspicious Node,315,THERMAL ZONE: F5 1-BED CORE WEST BASEEXHFAN OUTLET NODE,Air,0
 Suspicious Node,316,THERMAL ZONE: F5 1-BED NORTH BASEEXHFAN OUTLET NODE,Air,0
 Suspicious Node,317,THERMAL ZONE: F5 2-BED CORE NE-NW BASEEXHFAN OUTLET NODE,Air,0
 Suspicious Node,318,THERMAL ZONE: F5 2-BED EAST BASEEXHFAN OUTLET NODE,Air,0
 Suspicious Node,319,THERMAL ZONE: F5 2-BED WEST BASEEXHFAN OUTLET NODE,Air,0
 Suspicious Node,320,THERMAL ZONE: F5 3-BED NE BASEEXHFAN OUTLET NODE,Air,0
 Suspicious Node,321,THERMAL ZONE: F5 3-BED NW BASEEXHFAN OUTLET NODE,Air,0
 Suspicious Node,322,THERMAL ZONE: F5 STUDIO SE BASEEXHFAN OUTLET NODE,Air,0
 Suspicious Node,323,THERMAL ZONE: F5 STUDIO SW BASEEXHFAN OUTLET NODE,Air,0
 Suspicious Node,324,THERMAL ZONE: PARKING GARAGE BASEEXHFAN OUTLET NODE,Air,0
! ===============================================================
! <#Branch Lists>,<Number of Branch Lists>
 #Branch Lists,9
! <Branch List>,<Branch List Count>,<Branch List Name>,<Loop Name>,<Loop Type>,<Number of Branches>
! <Branch>,<Branch Count>,<Branch Name>,<Loop Name>,<Loop Type>,<Branch Inlet Node Name>,<Branch Outlet Node Name>
 Branch List,1,BASEAIRSYS5 SUPPLY BRANCHES,BASEAIRSYS5,Air,1
   Branch,1,BASEAIRSYS5 MAIN BRANCH,BASEAIRSYS5,Air,BASEAIRSYS5 SUPPLY SIDE (RETURN AIR) INLET NODE,BASESYS5 FAN OUTLET NODE
 Branch List,2,BASEAIRSYS5-2 SUPPLY BRANCHES,BASEAIRSYS5-2,Air,1
   Branch,1,BASEAIRSYS5-2 MAIN BRANCH,BASEAIRSYS5-2,Air,BASEAIRSYS5-2 SUPPLY SIDE (RETURN AIR) INLET NODE,BASESYS5 FAN-2 OUTLET NODE
 Branch List,3,BASEAIRSYS5-3 SUPPLY BRANCHES,BASEAIRSYS5-3,Air,1
   Branch,1,BASEAIRSYS5-3 MAIN BRANCH,BASEAIRSYS5-3,Air,BASEAIRSYS5-3 SUPPLY SIDE (RETURN AIR) INLET NODE,BASESYS5 FAN-3 OUTLET NODE
 Branch List,4,BASEHWSYSTEM SUPPLY BRANCHES,BASEHWSYSTEM,Plant Supply,4
   Branch,1,BASEHWSYSTEM SUPPLY INLET BRANCH,BASEHWSYSTEM,Plant Supply,BASEHWSYSTEM SUPPLY INLET NODE,BASEHWSYSTEM SUPPLY INLET PIPE NODE
   Branch,2,BASEHWSYSTEM SUPPLY BRANCH 1,BASEHWSYSTEM,Plant Supply,BASEHWSYSTEM SUPPLY SPLITTER OUTLET NODE 1,BASE BLR OUTLET NODE
   Branch,3,BASEHWSYSTEM SUPPLY BRANCH 2,BASEHWSYSTEM,Plant Supply,BASEHWSYSTEM SUPPLY SPLITTER OUTLET NODE 2,BASE BLR-2 OUTLET NODE
   Branch,4,BASEHWSYSTEM SUPPLY OUTLET BRANCH,BASEHWSYSTEM,Plant Supply,BASEHWSYSTEM SUPPLY OUTLET PIPE NODE,BASEHWSYSTEM SUPPLY MIXER OUTLET NODE
 Branch List,5,BASEHWSYSTEM DEMAND BRANCHES,BASEHWSYSTEM,Plant Demand,18
   Branch,1,BASEHWSYSTEM DEMAND INLET BRANCH,BASEHWSYSTEM,Plant Demand,BASEHWSYSTEM DEMAND INLET NODE,BASEHWSYSTEM DEMAND INLET PIPE NODE
   Branch,2,BASEHWSYSTEM DEMAND BRANCH 1,BASEHWSYSTEM,Plant Demand,BASEHWSYSTEM DEMAND SPLITTER OUTLET NODE 1,BASESYS5 COILHTG WATER OUTLET NODE
   Branch,3,BASEHWSYSTEM DEMAND BRANCH 2,BASEHWSYSTEM,Plant Demand,BASEHWSYSTEM DEMAND SPLITTER OUTLET NODE 2,BASESYS5 COILHTG-2 WATER OUTLET NODE
   Branch,4,BASEHWSYSTEM DEMAND BRANCH 3,BASEHWSYSTEM,Plant Demand,BASEHWSYSTEM DEMAND SPLITTER OUTLET NODE 3,BASESYS5 COILHTG-3 WATER OUTLET NODE
   Branch,5,BASEHWSYSTEM DEMAND BRANCH 4,BASEHWSYSTEM,Plant Demand,BASEHWSYSTEM DEMAND SPLITTER OUTLET NODE 4,BASEVAVBOX COILHTG WATER OUTLET NODE
   Branch,6,BASEHWSYSTEM DEMAND BRANCH 5,BASEHWSYSTEM,Plant Demand,BASEHWSYSTEM DEMAND SPLITTER OUTLET NODE 5,BASEVAVBOX COILHTG-2 WATER OUTLET NODE
   Branch,7,BASEHWSYSTEM DEMAND BRANCH 6,BASEHWSYSTEM,Plant Demand,BASEHWSYSTEM DEMAND SPLITTER OUTLET NODE 6,BASEVAVBOX COILHTG-3 WATER OUTLET NODE
   Branch,8,BASEHWSYSTEM DEMAND BRANCH 7,BASEHWSYSTEM,Plant Demand,BASEHWSYSTEM DEMAND SPLITTER OUTLET NODE 7,BASEVAVBOX COILHTG-4 WATER OUTLET NODE
   Branch,9,BASEHWSYSTEM DEMAND BRANCH 8,BASEHWSYSTEM,Plant Demand,BASEHWSYSTEM DEMAND SPLITTER OUTLET NODE 8,BASEVAVBOX COILHTG-5 WATER OUTLET NODE
   Branch,10,BASEHWSYSTEM DEMAND BRANCH 9,BASEHWSYSTEM,Plant Demand,BASEHWSYSTEM DEMAND SPLITTER OUTLET NODE 9,BASEVAVBOX COILHTG-6 WATER OUTLET NODE
   Branch,11,BASEHWSYSTEM DEMAND BRANCH 10,BASEHWSYSTEM,Plant Demand,BASEHWSYSTEM DEMAND SPLITTER OUTLET NODE 10,BASEVAVBOX COILHTG-7 WATER OUTLET NODE
   Branch,12,BASEHWSYSTEM DEMAND BRANCH 11,BASEHWSYSTEM,Plant Demand,BASEHWSYSTEM DEMAND SPLITTER OUTLET NODE 11,BASEVAVBOX COILHTG-8 WATER OUTLET NODE
   Branch,13,BASEHWSYSTEM DEMAND BRANCH 12,BASEHWSYSTEM,Plant Demand,BASEHWSYSTEM DEMAND SPLITTER OUTLET NODE 12,BASEVAVBOX COILHTG-9 WATER OUTLET NODE
   Branch,14,BASEHWSYSTEM DEMAND BRANCH 13,BASEHWSYSTEM,Plant Demand,BASEHWSYSTEM DEMAND SPLITTER OUTLET NODE 13,BASEVAVBOX COILHTG-10 WATER OUTLET NODE
   Branch,15,BASEHWSYSTEM DEMAND BRANCH 14,BASEHWSYSTEM,Plant Demand,BASEHWSYSTEM DEMAND SPLITTER OUTLET NODE 14,BASEVAVBOX COILHTG-11 WATER OUTLET NODE
   Branch,16,BASEHWSYSTEM DEMAND BRANCH 15,BASEHWSYSTEM,Plant Demand,BASEHWSYSTEM DEMAND SPLITTER OUTLET NODE 15,BASEVAVBOX COILHTG-12 WATER OUTLET NODE
   Branch,17,BASEHWSYSTEM DEMAND BYPASS BRANCH,BASEHWSYSTEM,Plant Demand,BASEHWSYSTEM DEMAND BYPASS PIPE INLET NODE,BASEHWSYSTEM DEMAND BYPASS PIPE OUTLET NODE
   Branch,18,BASEHWSYSTEM DEMAND OUTLET BRANCH,BASEHWSYSTEM,Plant Demand,BASEHWSYSTEM DEMAND OUTLET PIPE NODE,BASEHWSYSTEM DEMAND MIXER OUTLET NODE
 Branch List,6,NONRESBASEELECSHWSYSTEM SUPPLY BRANCHES,NONRESBASEELECSHWSYSTEM,Plant Supply,3
   Branch,1,NONRESBASEELECSHWSYSTEM SUPPLY INLET BRANCH,NONRESBASEELECSHWSYSTEM,Plant Supply,NONRESBASEELECSHWSYSTEM SUPPLY INLET NODE,{C73C7BEB-718F-477A-AC21-8051619F5EC2} OUTLET NODE
   Branch,2,NONRESBASEELECSHWSYSTEM SUPPLY BRANCH 1,NONRESBASEELECSHWSYSTEM,Plant Supply,NONRESBASEELECSHWSYSTEM SUPPLY SPLITTER OUTLET NODE 1,NONRESBASEELECWATERHEATER SUPPLY OUTLET NODE
   Branch,3,NONRESBASEELECSHWSYSTEM SUPPLY OUTLET BRANCH,NONRESBASEELECSHWSYSTEM,Plant Supply,NONRESBASEELECSHWSYSTEM SUPPLY OUTLET PIPE NODE,NONRESBASEELECSHWSYSTEM SUPPLY MIXER OUTLET NODE
 Branch List,7,NONRESBASEELECSHWSYSTEM DEMAND BRANCHES,NONRESBASEELECSHWSYSTEM,Plant Demand,27
   Branch,1,NONRESBASEELECSHWSYSTEM DEMAND INLET BRANCH,NONRESBASEELECSHWSYSTEM,Plant Demand,NONRESBASEELECSHWSYSTEM DEMAND INLET NODE,NONRESBASEELECSHWSYSTEM DEMAND INLET PIPE NODE
   Branch,2,NONRESBASEELECSHWSYSTEM DEMAND BRANCH 1,NONRESBASEELECSHWSYSTEM,Plant Demand,NONRESBASEELECSHWSYSTEM DEMAND SPLITTER OUTLET NODE 1,F1 BUSINESS CENTER WATER USE CONNECTION OUTLET NODE
   Branch,3,NONRESBASEELECSHWSYSTEM DEMAND BRANCH 2,NONRESBASEELECSHWSYSTEM,Plant Demand,NONRESBASEELECSHWSYSTEM DEMAND SPLITTER OUTLET NODE 2,F1 ELEVATOR CORE WATER USE CONNECTION OUTLET NODE
   Branch,4,NONRESBASEELECSHWSYSTEM DEMAND BRANCH 3,NONRESBASEELECSHWSYSTEM,Plant Demand,NONRESBASEELECSHWSYSTEM DEMAND SPLITTER OUTLET NODE 3,F1 ELEVATOR N WATER USE CONNECTION OUTLET NODE
   Branch,5,NONRESBASEELECSHWSYSTEM DEMAND BRANCH 4,NONRESBASEELECSHWSYSTEM,Plant Demand,NONRESBASEELECSHWSYSTEM DEMAND SPLITTER OUTLET NODE 4,F1 ELEVATOR S WATER USE CONNECTION OUTLET NODE
   Branch,6,NONRESBASEELECSHWSYSTEM DEMAND BRANCH 5,NONRESBASEELECSHWSYSTEM,Plant Demand,NONRESBASEELECSHWSYSTEM DEMAND SPLITTER OUTLET NODE 5,F1 LEASING OFFICE WATER USE CONNECTION OUTLET NODE
   Branch,7,NONRESBASEELECSHWSYSTEM DEMAND BRANCH 6,NONRESBASEELECSHWSYSTEM,Plant Demand,NONRESBASEELECSHWSYSTEM DEMAND SPLITTER OUTLET NODE 6,F1 MECHANICAL ROOM WATER USE CONNECTION OUTLET NODE
   Branch,8,NONRESBASEELECSHWSYSTEM DEMAND BRANCH 7,NONRESBASEELECSHWSYSTEM,Plant Demand,NONRESBASEELECSHWSYSTEM DEMAND SPLITTER OUTLET NODE 7,F1 RETAIL N CORE WATER USE CONNECTION OUTLET NODE
   Branch,9,NONRESBASEELECSHWSYSTEM DEMAND BRANCH 8,NONRESBASEELECSHWSYSTEM,Plant Demand,NONRESBASEELECSHWSYSTEM DEMAND SPLITTER OUTLET NODE 8,F1 RETAIL NE CORE WATER USE CONNECTION OUTLET NODE
   Branch,10,NONRESBASEELECSHWSYSTEM DEMAND BRANCH 9,NONRESBASEELECSHWSYSTEM,Plant Demand,NONRESBASEELECSHWSYSTEM DEMAND SPLITTER OUTLET NODE 9,F1 RETAIL NE INNER WATER USE CONNECTION OUTLET NODE
   Branch,11,NONRESBASEELECSHWSYSTEM DEMAND BRANCH 10,NONRESBASEELECSHWSYSTEM,Plant Demand,NONRESBASEELECSHWSYSTEM DEMAND SPLITTER OUTLET NODE 10,F1 RETAIL NE OUTER WATER USE CONNECTION OUTLET NODE
   Branch,12,NONRESBASEELECSHWSYSTEM DEMAND BRANCH 11,NONRESBASEELECSHWSYSTEM,Plant Demand,NONRESBASEELECSHWSYSTEM DEMAND SPLITTER OUTLET NODE 11,F1 RETAIL NW INNER CORE WATER USE CONNECTION OUTLET NODE
   Branch,13,NONRESBASEELECSHWSYSTEM DEMAND BRANCH 12,NONRESBASEELECSHWSYSTEM,Plant Demand,NONRESBASEELECSHWSYSTEM DEMAND SPLITTER OUTLET NODE 12,F1 RETAIL NW OUTER WATER USE CONNECTION OUTLET NODE
   Branch,14,NONRESBASEELECSHWSYSTEM DEMAND BRANCH 13,NONRESBASEELECSHWSYSTEM,Plant Demand,NONRESBASEELECSHWSYSTEM DEMAND SPLITTER OUTLET NODE 13,F1 RETAIL NW OUTER CORE WATER USE CONNECTION OUTLET NODE
   Branch,15,NONRESBASEELECSHWSYSTEM DEMAND BRANCH 14,NONRESBASEELECSHWSYSTEM,Plant Demand,NONRESBASEELECSHWSYSTEM DEMAND SPLITTER OUTLET NODE 14,F1 RETAIL SE BOTTOM WATER USE CONNECTION OUTLET NODE
   Branch,16,NONRESBASEELECSHWSYSTEM DEMAND BRANCH 15,NONRESBASEELECSHWSYSTEM,Plant Demand,NONRESBASEELECSHWSYSTEM DEMAND SPLITTER OUTLET NODE 15,F1 RETAIL SE TOP WATER USE CONNECTION OUTLET NODE
   Branch,17,NONRESBASEELECSHWSYSTEM DEMAND BRANCH 16,NONRESBASEELECSHWSYSTEM,Plant Demand,NONRESBASEELECSHWSYSTEM DEMAND SPLITTER OUTLET NODE 16,F1 RETAIL SW BOTTOM WATER USE CONNECTION OUTLET NODE
   Branch,18,NONRESBASEELECSHWSYSTEM DEMAND BRANCH 17,NONRESBASEELECSHWSYSTEM,Plant Demand,NONRESBASEELECSHWSYSTEM DEMAND SPLITTER OUTLET NODE 17,F1 RETAIL SW CORE WATER USE CONNECTION OUTLET NODE
   Branch,19,NONRESBASEELECSHWSYSTEM DEMAND BRANCH 18,NONRESBASEELECSHWSYSTEM,Plant Demand,NONRESBASEELECSHWSYSTEM DEMAND SPLITTER OUTLET NODE 18,F1 RETAIL SW TOP WATER USE CONNECTION OUTLET NODE
   Branch,20,NONRESBASEELECSHWSYSTEM DEMAND BRANCH 19,NONRESBASEELECSHWSYSTEM,Plant Demand,NONRESBASEELECSHWSYSTEM DEMAND SPLITTER OUTLET NODE 19,F2-4 ELEVATOR CORE WATER USE CONNECTION OUTLET NODE
   Branch,21,NONRESBASEELECSHWSYSTEM DEMAND BRANCH 20,NONRESBASEELECSHWSYSTEM,Plant Demand,NONRESBASEELECSHWSYSTEM DEMAND SPLITTER OUTLET NODE 20,F2-4 ELEVATOR N WATER USE CONNECTION OUTLET NODE
   Branch,22,NONRESBASEELECSHWSYSTEM DEMAND BRANCH 21,NONRESBASEELECSHWSYSTEM,Plant Demand,NONRESBASEELECSHWSYSTEM DEMAND SPLITTER OUTLET NODE 21,F2-4 ELEVATOR S WATER USE CONNECTION OUTLET NODE
   Branch,23,NONRESBASEELECSHWSYSTEM DEMAND BRANCH 22,NONRESBASEELECSHWSYSTEM,Plant Demand,NONRESBASEELECSHWSYSTEM DEMAND SPLITTER OUTLET NODE 22,F5 ELEVATOR CORE WATER USE CONNECTION OUTLET NODE
   Branch,24,NONRESBASEELECSHWSYSTEM DEMAND BRANCH 23,NONRESBASEELECSHWSYSTEM,Plant Demand,NONRESBASEELECSHWSYSTEM DEMAND SPLITTER OUTLET NODE 23,F5 ELEVATOR N WATER USE CONNECTION OUTLET NODE
   Branch,25,NONRESBASEELECSHWSYSTEM DEMAND BRANCH 24,NONRESBASEELECSHWSYSTEM,Plant Demand,NONRESBASEELECSHWSYSTEM DEMAND SPLITTER OUTLET NODE 24,F5 ELEVATOR S WATER USE CONNECTION OUTLET NODE
   Branch,26,NONRESBASEELECSHWSYSTEM DEMAND BYPASS BRANCH,NONRESBASEELECSHWSYSTEM,Plant Demand,NONRESBASEELECSHWSYSTEM DEMAND BYPASS PIPE INLET NODE,NONRESBASEELECSHWSYSTEM DEMAND BYPASS PIPE OUTLET NODE
   Branch,27,NONRESBASEELECSHWSYSTEM DEMAND OUTLET BRANCH,NONRESBASEELECSHWSYSTEM,Plant Demand,NONRESBASEELECSHWSYSTEM DEMAND OUTLET PIPE NODE,NONRESBASEELECSHWSYSTEM DEMAND MIXER OUTLET NODE
 Branch List,8,NONRESBASEGASSHWSYSTEM SUPPLY BRANCHES,NONRESBASEGASSHWSYSTEM,Plant Supply,3
   Branch,1,NONRESBASEGASSHWSYSTEM SUPPLY INLET BRANCH,NONRESBASEGASSHWSYSTEM,Plant Supply,NONRESBASEGASSHWSYSTEM SUPPLY INLET NODE,{BDF7A154-F49A-4214-B3F6-CBFA2D9831EF} OUTLET NODE
   Branch,2,NONRESBASEGASSHWSYSTEM SUPPLY BRANCH 1,NONRESBASEGASSHWSYSTEM,Plant Supply,NONRESBASEGASSHWSYSTEM SUPPLY SPLITTER OUTLET NODE 1,NONRESBASEGASWATERHEATER SUPPLY OUTLET NODE
   Branch,3,NONRESBASEGASSHWSYSTEM SUPPLY OUTLET BRANCH,NONRESBASEGASSHWSYSTEM,Plant Supply,NONRESBASEGASSHWSYSTEM SUPPLY OUTLET PIPE NODE,NONRESBASEGASSHWSYSTEM SUPPLY MIXER OUTLET NODE
 Branch List,9,NONRESBASEGASSHWSYSTEM DEMAND BRANCHES,NONRESBASEGASSHWSYSTEM,Plant Demand,7
   Branch,1,NONRESBASEGASSHWSYSTEM DEMAND INLET BRANCH,NONRESBASEGASSHWSYSTEM,Plant Demand,NONRESBASEGASSHWSYSTEM DEMAND INLET NODE,NONRESBASEGASSHWSYSTEM DEMAND INLET PIPE NODE
   Branch,2,NONRESBASEGASSHWSYSTEM DEMAND BRANCH 1,NONRESBASEGASSHWSYSTEM,Plant Demand,NONRESBASEGASSHWSYSTEM DEMAND SPLITTER OUTLET NODE 1,F1 LOUNGE WATER USE CONNECTION OUTLET NODE
   Branch,3,NONRESBASEGASSHWSYSTEM DEMAND BRANCH 2,NONRESBASEGASSHWSYSTEM,Plant Demand,NONRESBASEGASSHWSYSTEM DEMAND SPLITTER OUTLET NODE 2,F1 FITNESS CENTER WATER USE CONNECTION OUTLET NODE
   Branch,4,NONRESBASEGASSHWSYSTEM DEMAND BRANCH 3,NONRESBASEGASSHWSYSTEM,Plant Demand,NONRESBASEGASSHWSYSTEM DEMAND SPLITTER OUTLET NODE 3,F2-4 LAUNDRY WATER USE CONNECTION OUTLET NODE
   Branch,5,NONRESBASEGASSHWSYSTEM DEMAND BRANCH 4,NONRESBASEGASSHWSYSTEM,Plant Demand,NONRESBASEGASSHWSYSTEM DEMAND SPLITTER OUTLET NODE 4,F5 LAUNDRY WATER USE CONNECTION OUTLET NODE
   Branch,6,NONRESBASEGASSHWSYSTEM DEMAND BYPASS BRANCH,NONRESBASEGASSHWSYSTEM,Plant Demand,NONRESBASEGASSHWSYSTEM DEMAND BYPASS PIPE INLET NODE,NONRESBASEGASSHWSYSTEM DEMAND BYPASS PIPE OUTLET NODE
   Branch,7,NONRESBASEGASSHWSYSTEM DEMAND OUTLET BRANCH,NONRESBASEGASSHWSYSTEM,Plant Demand,NONRESBASEGASSHWSYSTEM DEMAND OUTLET PIPE NODE,NONRESBASEGASSHWSYSTEM DEMAND MIXER OUTLET NODE
! ===============================================================
! <#Supply Air Paths>,<Number of Supply Air Paths>
 #Supply Air Paths,3
! <Supply Air Path>,<Supply Air Path Count>,<Supply Air Path Name>,<AirLoopHVAC Name>
! <#Components on Supply Air Path>,<Number of Components>
! <Supply Air Path Component>,<Component Count>,<Component Type>,<Component Name>,<AirLoopHVAC Name>
! <#Outlet Nodes on Supply Air Path Component>,<Number of Nodes>
! <Supply Air Path Component Nodes>,<Node Count>,<Component Type>,<Component Name>,<Inlet Node Name>,<Outlet Node Name>,<AirLoopHVAC Name>
 Supply Air Path,1,BASEAIRSYS5 BASEAIRSYS5 DEMAND SIDE (SUPPLY AIR) INLET NODE SUPPLY PATH,BASEAIRSYS5
   #Components on Supply Air Path,1
   Supply Air Path Component,1,AIRLOOPHVAC:ZONESPLITTER,BASEAIRSYS5 ZONE SPLITTER,BASEAIRSYS5
     #Outlet Nodes on Supply Air Path Component,10
     Supply Air Path Component Nodes,1,AIRLOOPHVAC:ZONESPLITTER,BASEAIRSYS5 ZONE SPLITTER,BASEAIRSYS5 DEMAND SIDE (SUPPLY AIR) INLET NODE,BASEAIRSYS5 ZONE SPLITTER OUTLET NODE 1,BASEAIRSYS5
     Supply Air Path Component Nodes,2,AIRLOOPHVAC:ZONESPLITTER,BASEAIRSYS5 ZONE SPLITTER,BASEAIRSYS5 DEMAND SIDE (SUPPLY AIR) INLET NODE,BASEAIRSYS5 ZONE SPLITTER OUTLET NODE 2,BASEAIRSYS5
     Supply Air Path Component Nodes,3,AIRLOOPHVAC:ZONESPLITTER,BASEAIRSYS5 ZONE SPLITTER,BASEAIRSYS5 DEMAND SIDE (SUPPLY AIR) INLET NODE,BASEAIRSYS5 ZONE SPLITTER OUTLET NODE 3,BASEAIRSYS5
     Supply Air Path Component Nodes,4,AIRLOOPHVAC:ZONESPLITTER,BASEAIRSYS5 ZONE SPLITTER,BASEAIRSYS5 DEMAND SIDE (SUPPLY AIR) INLET NODE,BASEAIRSYS5 ZONE SPLITTER OUTLET NODE 4,BASEAIRSYS5
     Supply Air Path Component Nodes,5,AIRLOOPHVAC:ZONESPLITTER,BASEAIRSYS5 ZONE SPLITTER,BASEAIRSYS5 DEMAND SIDE (SUPPLY AIR) INLET NODE,BASEAIRSYS5 ZONE SPLITTER OUTLET NODE 5,BASEAIRSYS5
     Supply Air Path Component Nodes,6,AIRLOOPHVAC:ZONESPLITTER,BASEAIRSYS5 ZONE SPLITTER,BASEAIRSYS5 DEMAND SIDE (SUPPLY AIR) INLET NODE,BASEAIRSYS5 ZONE SPLITTER OUTLET NODE 6,BASEAIRSYS5
     Supply Air Path Component Nodes,7,AIRLOOPHVAC:ZONESPLITTER,BASEAIRSYS5 ZONE SPLITTER,BASEAIRSYS5 DEMAND SIDE (SUPPLY AIR) INLET NODE,BASEAIRSYS5 ZONE SPLITTER OUTLET NODE 7,BASEAIRSYS5
     Supply Air Path Component Nodes,8,AIRLOOPHVAC:ZONESPLITTER,BASEAIRSYS5 ZONE SPLITTER,BASEAIRSYS5 DEMAND SIDE (SUPPLY AIR) INLET NODE,BASEAIRSYS5 ZONE SPLITTER OUTLET NODE 8,BASEAIRSYS5
     Supply Air Path Component Nodes,9,AIRLOOPHVAC:ZONESPLITTER,BASEAIRSYS5 ZONE SPLITTER,BASEAIRSYS5 DEMAND SIDE (SUPPLY AIR) INLET NODE,BASEAIRSYS5 ZONE SPLITTER OUTLET NODE 9,BASEAIRSYS5
     Supply Air Path Component Nodes,10,AIRLOOPHVAC:ZONESPLITTER,BASEAIRSYS5 ZONE SPLITTER,BASEAIRSYS5 DEMAND SIDE (SUPPLY AIR) INLET NODE,BASEAIRSYS5 ZONE SPLITTER OUTLET NODE 10,BASEAIRSYS5
! <#Nodes on Supply Air Path>,<Number of Nodes>
! <Supply Air Path Node>,<Node Type>,<Node Count>,<Node Name>,<AirLoopHVAC Name>
#Nodes on Supply Air Path,11
   Supply Air Path Node,Inlet Node,1,BASEAIRSYS5 DEMAND SIDE (SUPPLY AIR) INLET NODE,BASEAIRSYS5
   Supply Air Path Node,Outlet Node,2,BASEAIRSYS5 ZONE SPLITTER OUTLET NODE 1,BASEAIRSYS5
   Supply Air Path Node,Outlet Node,3,BASEAIRSYS5 ZONE SPLITTER OUTLET NODE 2,BASEAIRSYS5
   Supply Air Path Node,Outlet Node,4,BASEAIRSYS5 ZONE SPLITTER OUTLET NODE 3,BASEAIRSYS5
   Supply Air Path Node,Outlet Node,5,BASEAIRSYS5 ZONE SPLITTER OUTLET NODE 4,BASEAIRSYS5
   Supply Air Path Node,Outlet Node,6,BASEAIRSYS5 ZONE SPLITTER OUTLET NODE 5,BASEAIRSYS5
   Supply Air Path Node,Outlet Node,7,BASEAIRSYS5 ZONE SPLITTER OUTLET NODE 6,BASEAIRSYS5
   Supply Air Path Node,Outlet Node,8,BASEAIRSYS5 ZONE SPLITTER OUTLET NODE 7,BASEAIRSYS5
   Supply Air Path Node,Outlet Node,9,BASEAIRSYS5 ZONE SPLITTER OUTLET NODE 8,BASEAIRSYS5
   Supply Air Path Node,Outlet Node,10,BASEAIRSYS5 ZONE SPLITTER OUTLET NODE 9,BASEAIRSYS5
   Supply Air Path Node,Outlet Node,11,BASEAIRSYS5 ZONE SPLITTER OUTLET NODE 10,BASEAIRSYS5
 Supply Air Path,2,BASEAIRSYS5-2 BASEAIRSYS5-2 DEMAND SIDE (SUPPLY AIR) INLET NODE SUPPLY PATH,BASEAIRSYS5-2
   #Components on Supply Air Path,1
   Supply Air Path Component,1,AIRLOOPHVAC:ZONESPLITTER,BASEAIRSYS5-2 ZONE SPLITTER,BASEAIRSYS5-2
     #Outlet Nodes on Supply Air Path Component,1
     Supply Air Path Component Nodes,1,AIRLOOPHVAC:ZONESPLITTER,BASEAIRSYS5-2 ZONE SPLITTER,BASEAIRSYS5-2 DEMAND SIDE (SUPPLY AIR) INLET NODE,BASEAIRSYS5-2 ZONE SPLITTER OUTLET NODE 1,BASEAIRSYS5-2
! <#Nodes on Supply Air Path>,<Number of Nodes>
! <Supply Air Path Node>,<Node Type>,<Node Count>,<Node Name>,<AirLoopHVAC Name>
#Nodes on Supply Air Path,2
   Supply Air Path Node,Inlet Node,1,BASEAIRSYS5-2 DEMAND SIDE (SUPPLY AIR) INLET NODE,BASEAIRSYS5-2
   Supply Air Path Node,Outlet Node,2,BASEAIRSYS5-2 ZONE SPLITTER OUTLET NODE 1,BASEAIRSYS5-2
 Supply Air Path,3,BASEAIRSYS5-3 BASEAIRSYS5-3 DEMAND SIDE (SUPPLY AIR) INLET NODE SUPPLY PATH,BASEAIRSYS5-3
   #Components on Supply Air Path,1
   Supply Air Path Component,1,AIRLOOPHVAC:ZONESPLITTER,BASEAIRSYS5-3 ZONE SPLITTER,BASEAIRSYS5-3
     #Outlet Nodes on Supply Air Path Component,1
     Supply Air Path Component Nodes,1,AIRLOOPHVAC:ZONESPLITTER,BASEAIRSYS5-3 ZONE SPLITTER,BASEAIRSYS5-3 DEMAND SIDE (SUPPLY AIR) INLET NODE,BASEAIRSYS5-3 ZONE SPLITTER OUTLET NODE 1,BASEAIRSYS5-3
! <#Nodes on Supply Air Path>,<Number of Nodes>
! <Supply Air Path Node>,<Node Type>,<Node Count>,<Node Name>,<AirLoopHVAC Name>
#Nodes on Supply Air Path,2
   Supply Air Path Node,Inlet Node,1,BASEAIRSYS5-3 DEMAND SIDE (SUPPLY AIR) INLET NODE,BASEAIRSYS5-3
   Supply Air Path Node,Outlet Node,2,BASEAIRSYS5-3 ZONE SPLITTER OUTLET NODE 1,BASEAIRSYS5-3
! ===============================================================
! <#Return Air Paths>,<Number of Return Air Paths>
 #Return Air Paths,3
! <Return Air Path>,<Return Air Path Count>,<Return Air Path Name>,<AirLoopHVAC Name>
! <#Components on Return Air Path>,<Number of Components>
! <Return Air Path Component>,<Component Count>,<Component Type>,<Component Name>,<AirLoopHVAC Name>
! <#Inlet Nodes on Return Air Path Component>,<Number of Nodes>
! <Return Air Path Component Nodes>,<Node Count>,<Component Type>,<Component Name>,<Inlet Node Name>,<Outlet Node Name>,<AirLoopHVAC Name>
 Return Air Path,1,BASEAIRSYS5 RETURN PATH,BASEAIRSYS5
   #Components on Return Air Path,1
   Return Air Path Component,1,AIRLOOPHVAC:ZONEMIXER,BASEAIRSYS5 ZONE MIXER,BASEAIRSYS5
     #Inlet Nodes on Return Air Path Component,10
     Return Air Path Component Nodes,1,AIRLOOPHVAC:ZONEMIXER,BASEAIRSYS5 ZONE MIXER,THERMAL ZONE: F1 BUSINESS CENTER RETURN AIR NODE,BASEAIRSYS5 ZONE MIXER OUTLET NODE,BASEAIRSYS5
     Return Air Path Component Nodes,2,AIRLOOPHVAC:ZONEMIXER,BASEAIRSYS5 ZONE MIXER,THERMAL ZONE: F1 CORRIDOR RETURN AIR NODE,BASEAIRSYS5 ZONE MIXER OUTLET NODE,BASEAIRSYS5
     Return Air Path Component Nodes,3,AIRLOOPHVAC:ZONEMIXER,BASEAIRSYS5 ZONE MIXER,THERMAL ZONE: F1 LOUNGE RETURN AIR NODE,BASEAIRSYS5 ZONE MIXER OUTLET NODE,BASEAIRSYS5
     Return Air Path Component Nodes,4,AIRLOOPHVAC:ZONEMIXER,BASEAIRSYS5 ZONE MIXER,THERMAL ZONE: F1 FITNESS CENTER RETURN AIR NODE,BASEAIRSYS5 ZONE MIXER OUTLET NODE,BASEAIRSYS5
     Return Air Path Component Nodes,5,AIRLOOPHVAC:ZONEMIXER,BASEAIRSYS5 ZONE MIXER,THERMAL ZONE: F1 LEASING OFFICE RETURN AIR NODE,BASEAIRSYS5 ZONE MIXER OUTLET NODE,BASEAIRSYS5
     Return Air Path Component Nodes,6,AIRLOOPHVAC:ZONEMIXER,BASEAIRSYS5 ZONE MIXER,THERMAL ZONE: F1 MECHANICAL ROOM RETURN AIR NODE,BASEAIRSYS5 ZONE MIXER OUTLET NODE,BASEAIRSYS5
     Return Air Path Component Nodes,7,AIRLOOPHVAC:ZONEMIXER,BASEAIRSYS5 ZONE MIXER,THERMAL ZONE: F1 RETAIL N-NW RETURN AIR NODE,BASEAIRSYS5 ZONE MIXER OUTLET NODE,BASEAIRSYS5
     Return Air Path Component Nodes,8,AIRLOOPHVAC:ZONEMIXER,BASEAIRSYS5 ZONE MIXER,THERMAL ZONE: F1 RETAIL NE RETURN AIR NODE,BASEAIRSYS5 ZONE MIXER OUTLET NODE,BASEAIRSYS5
     Return Air Path Component Nodes,9,AIRLOOPHVAC:ZONEMIXER,BASEAIRSYS5 ZONE MIXER,THERMAL ZONE: F1 RETAIL SE RETURN AIR NODE,BASEAIRSYS5 ZONE MIXER OUTLET NODE,BASEAIRSYS5
     Return Air Path Component Nodes,10,AIRLOOPHVAC:ZONEMIXER,BASEAIRSYS5 ZONE MIXER,THERMAL ZONE: F1 RETAIL SW RETURN AIR NODE,BASEAIRSYS5 ZONE MIXER OUTLET NODE,BASEAIRSYS5
! <#Nodes on Return Air Path>,<Number of Nodes>
! <Return Air Path Node>,<Node Type>,<Node Count>,<Node Name>,<AirLoopHVAC Name>
   #Nodes on Return Air Path,11
   Return Air Path Node,Outlet Node,1,BASEAIRSYS5 ZONE MIXER OUTLET NODE,BASEAIRSYS5
   Return Air Path Node,Inlet Node,2,THERMAL ZONE: F1 BUSINESS CENTER RETURN AIR NODE,BASEAIRSYS5
   Return Air Path Node,Inlet Node,3,THERMAL ZONE: F1 CORRIDOR RETURN AIR NODE,BASEAIRSYS5
   Return Air Path Node,Inlet Node,4,THERMAL ZONE: F1 LOUNGE RETURN AIR NODE,BASEAIRSYS5
   Return Air Path Node,Inlet Node,5,THERMAL ZONE: F1 FITNESS CENTER RETURN AIR NODE,BASEAIRSYS5
   Return Air Path Node,Inlet Node,6,THERMAL ZONE: F1 LEASING OFFICE RETURN AIR NODE,BASEAIRSYS5
   Return Air Path Node,Inlet Node,7,THERMAL ZONE: F1 MECHANICAL ROOM RETURN AIR NODE,BASEAIRSYS5
   Return Air Path Node,Inlet Node,8,THERMAL ZONE: F1 RETAIL N-NW RETURN AIR NODE,BASEAIRSYS5
   Return Air Path Node,Inlet Node,9,THERMAL ZONE: F1 RETAIL NE RETURN AIR NODE,BASEAIRSYS5
   Return Air Path Node,Inlet Node,10,THERMAL ZONE: F1 RETAIL SE RETURN AIR NODE,BASEAIRSYS5
   Return Air Path Node,Inlet Node,11,THERMAL ZONE: F1 RETAIL SW RETURN AIR NODE,BASEAIRSYS5
 Return Air Path,2,BASEAIRSYS5-2 RETURN PATH,BASEAIRSYS5-2
   #Components on Return Air Path,1
   Return Air Path Component,1,AIRLOOPHVAC:ZONEMIXER,BASEAIRSYS5-2 ZONE MIXER,BASEAIRSYS5-2
     #Inlet Nodes on Return Air Path Component,1
     Return Air Path Component Nodes,1,AIRLOOPHVAC:ZONEMIXER,BASEAIRSYS5-2 ZONE MIXER,THERMAL ZONE: F2-4 CORRIDOR RETURN AIR NODE,BASEAIRSYS5-2 ZONE MIXER OUTLET NODE,BASEAIRSYS5-2
! <#Nodes on Return Air Path>,<Number of Nodes>
! <Return Air Path Node>,<Node Type>,<Node Count>,<Node Name>,<AirLoopHVAC Name>
   #Nodes on Return Air Path,2
   Return Air Path Node,Outlet Node,1,BASEAIRSYS5-2 ZONE MIXER OUTLET NODE,BASEAIRSYS5-2
   Return Air Path Node,Inlet Node,2,THERMAL ZONE: F2-4 CORRIDOR RETURN AIR NODE,BASEAIRSYS5-2
 Return Air Path,3,BASEAIRSYS5-3 RETURN PATH,BASEAIRSYS5-3
   #Components on Return Air Path,1
   Return Air Path Component,1,AIRLOOPHVAC:ZONEMIXER,BASEAIRSYS5-3 ZONE MIXER,BASEAIRSYS5-3
     #Inlet Nodes on Return Air Path Component,1
     Return Air Path Component Nodes,1,AIRLOOPHVAC:ZONEMIXER,BASEAIRSYS5-3 ZONE MIXER,THERMAL ZONE: F5 CORRIDOR RETURN AIR NODE,BASEAIRSYS5-3 ZONE MIXER OUTLET NODE,BASEAIRSYS5-3
! <#Nodes on Return Air Path>,<Number of Nodes>
! <Return Air Path Node>,<Node Type>,<Node Count>,<Node Name>,<AirLoopHVAC Name>
   #Nodes on Return Air Path,2
   Return Air Path Node,Outlet Node,1,BASEAIRSYS5-3 ZONE MIXER OUTLET NODE,BASEAIRSYS5-3
   Return Air Path Node,Inlet Node,2,THERMAL ZONE: F5 CORRIDOR RETURN AIR NODE,BASEAIRSYS5-3
! ===============================================================
! #Outdoor Air Nodes,<Number of Outdoor Air Nodes>
 #Outdoor Air Nodes,4
! <Outdoor Air Node>,<NodeNumber>,<Node Name>
 Outdoor Air Node,274,BASESYS5 OACTRL OA SYSTEM OA NODE
 Outdoor Air Node,275,BASESYS5 OACTRL-2 OA SYSTEM OA NODE
 Outdoor Air Node,276,BASESYS5 OACTRL-3 OA SYSTEM OA NODE
 Outdoor Air Node,277,MODEL OUTDOOR AIR NODE
! ===============================================================
! <#Component Sets>,<Number of Component Sets>
 #Component Sets,172
! <Component Set>,<Component Set Count>,<Parent Object Type>,<Parent Object Name>,<Component Type>,<Component Name>,<Inlet Node ID>,<Outlet Node ID>,<Description>
 Component Set,1,BRANCH,BASEAIRSYS5 MAIN BRANCH,AIRLOOPHVAC:OUTDOORAIRSYSTEM,BASESYS5 OACTRL OA SYSTEM,BASEAIRSYS5 SUPPLY SIDE (RETURN AIR) INLET NODE,BASESYS5 OACTRL OA SYSTEM MIXED AIR NODE,Air Nodes
 Component Set,2,BRANCH,BASEAIRSYS5 MAIN BRANCH,COILSYSTEM:COOLING:DX,BASESYS5 COILCLG COILSYSTEM,BASESYS5 OACTRL OA SYSTEM MIXED AIR NODE,BASESYS5 COILCLG OUTLET NODE,Air Nodes
 Component Set,3,BRANCH,BASEAIRSYS5 MAIN BRANCH,COIL:HEATING:WATER,BASESYS5 COILHTG,BASESYS5 COILCLG OUTLET NODE,BASESYS5 COILHTG AIR OUTLET NODE,Air Nodes
 Component Set,4,BRANCH,BASEAIRSYS5 MAIN BRANCH,FAN:VARIABLEVOLUME,BASESYS5 FAN,BASESYS5 COILHTG AIR OUTLET NODE,BASESYS5 FAN OUTLET NODE,Air Nodes
 Component Set,5,BRANCH,BASEAIRSYS5-2 MAIN BRANCH,AIRLOOPHVAC:OUTDOORAIRSYSTEM,BASESYS5 OACTRL-2 OA SYSTEM,BASEAIRSYS5-2 SUPPLY SIDE (RETURN AIR) INLET NODE,BASESYS5 OACTRL-2 OA SYSTEM MIXED AIR NODE,Air Nodes
 Component Set,6,BRANCH,BASEAIRSYS5-2 MAIN BRANCH,COILSYSTEM:COOLING:DX,BASESYS5 COILCLG-2 COILSYSTEM,BASESYS5 OACTRL-2 OA SYSTEM MIXED AIR NODE,BASESYS5 COILCLG-2 OUTLET NODE,Air Nodes
 Component Set,7,BRANCH,BASEAIRSYS5-2 MAIN BRANCH,COIL:HEATING:WATER,BASESYS5 COILHTG-2,BASESYS5 COILCLG-2 OUTLET NODE,BASESYS5 COILHTG-2 AIR OUTLET NODE,Air Nodes
 Component Set,8,BRANCH,BASEAIRSYS5-2 MAIN BRANCH,FAN:VARIABLEVOLUME,BASESYS5 FAN-2,BASESYS5 COILHTG-2 AIR OUTLET NODE,BASESYS5 FAN-2 OUTLET NODE,Air Nodes
 Component Set,9,BRANCH,BASEAIRSYS5-3 MAIN BRANCH,AIRLOOPHVAC:OUTDOORAIRSYSTEM,BASESYS5 OACTRL-3 OA SYSTEM,BASEAIRSYS5-3 SUPPLY SIDE (RETURN AIR) INLET NODE,BASESYS5 OACTRL-3 OA SYSTEM MIXED AIR NODE,Air Nodes
 Component Set,10,BRANCH,BASEAIRSYS5-3 MAIN BRANCH,COILSYSTEM:COOLING:DX,BASESYS5 COILCLG-3 COILSYSTEM,BASESYS5 OACTRL-3 OA SYSTEM MIXED AIR NODE,BASESYS5 COILCLG-3 OUTLET NODE,Air Nodes
 Component Set,11,BRANCH,BASEAIRSYS5-3 MAIN BRANCH,COIL:HEATING:WATER,BASESYS5 COILHTG-3,BASESYS5 COILCLG-3 OUTLET NODE,BASESYS5 COILHTG-3 AIR OUTLET NODE,Air Nodes
 Component Set,12,BRANCH,BASEAIRSYS5-3 MAIN BRANCH,FAN:VARIABLEVOLUME,BASESYS5 FAN-3,BASESYS5 COILHTG-3 AIR OUTLET NODE,BASESYS5 FAN-3 OUTLET NODE,Air Nodes
 Component Set,13,BRANCH,BASEHWSYSTEM SUPPLY INLET BRANCH,PIPE:ADIABATIC,BASEHWSYSTEM SUPPLY INLET PIPE,BASEHWSYSTEM SUPPLY INLET NODE,BASEHWSYSTEM SUPPLY INLET PIPE NODE,Pipe Nodes
 Component Set,14,BRANCH,BASEHWSYSTEM SUPPLY BRANCH 1,PUMP:VARIABLESPEED,BASE HW PUMP,BASEHWSYSTEM SUPPLY SPLITTER OUTLET NODE 1,BASE HW PUMP OUTLET NODE,Water Nodes
 Component Set,15,BRANCH,BASEHWSYSTEM SUPPLY BRANCH 1,BOILER:HOTWATER,BASE BLR,BASE HW PUMP OUTLET NODE,BASE BLR OUTLET NODE,Hot Water Nodes
 Component Set,16,BRANCH,BASEHWSYSTEM SUPPLY BRANCH 2,PUMP:VARIABLESPEED,BASE HW PUMP-2,BASEHWSYSTEM SUPPLY SPLITTER OUTLET NODE 2,BASE HW PUMP-2 OUTLET NODE,Water Nodes
 Component Set,17,BRANCH,BASEHWSYSTEM SUPPLY BRANCH 2,BOILER:HOTWATER,BASE BLR-2,BASE HW PUMP-2 OUTLET NODE,BASE BLR-2 OUTLET NODE,Hot Water Nodes
 Component Set,18,BRANCH,BASEHWSYSTEM SUPPLY OUTLET BRANCH,PIPE:ADIABATIC,BASEHWSYSTEM SUPPLY OUTLET PIPE,BASEHWSYSTEM SUPPLY OUTLET PIPE NODE,BASEHWSYSTEM SUPPLY MIXER OUTLET NODE,Pipe Nodes
 Component Set,19,BRANCH,BASEHWSYSTEM DEMAND INLET BRANCH,PIPE:ADIABATIC,BASEHWSYSTEM DEMAND INLET PIPE,BASEHWSYSTEM DEMAND INLET NODE,BASEHWSYSTEM DEMAND INLET PIPE NODE,Pipe Nodes
 Component Set,20,BRANCH,BASEHWSYSTEM DEMAND BRANCH 1,COIL:HEATING:WATER,BASESYS5 COILHTG,BASEHWSYSTEM DEMAND SPLITTER OUTLET NODE 1,BASESYS5 COILHTG WATER OUTLET NODE,Water Nodes
 Component Set,21,BRANCH,BASEHWSYSTEM DEMAND BRANCH 2,COIL:HEATING:WATER,BASESYS5 COILHTG-2,BASEHWSYSTEM DEMAND SPLITTER OUTLET NODE 2,BASESYS5 COILHTG-2 WATER OUTLET NODE,Water Nodes
 Component Set,22,BRANCH,BASEHWSYSTEM DEMAND BRANCH 3,COIL:HEATING:WATER,BASESYS5 COILHTG-3,BASEHWSYSTEM DEMAND SPLITTER OUTLET NODE 3,BASESYS5 COILHTG-3 WATER OUTLET NODE,Water Nodes
 Component Set,23,BRANCH,BASEHWSYSTEM DEMAND BRANCH 4,COIL:HEATING:WATER,BASEVAVBOX COILHTG,BASEHWSYSTEM DEMAND SPLITTER OUTLET NODE 4,BASEVAVBOX COILHTG WATER OUTLET NODE,Water Nodes
 Component Set,24,BRANCH,BASEHWSYSTEM DEMAND BRANCH 5,COIL:HEATING:WATER,BASEVAVBOX COILHTG-2,BASEHWSYSTEM DEMAND SPLITTER OUTLET NODE 5,BASEVAVBOX COILHTG-2 WATER OUTLET NODE,Water Nodes
 Component Set,25,BRANCH,BASEHWSYSTEM DEMAND BRANCH 6,COIL:HEATING:WATER,BASEVAVBOX COILHTG-3,BASEHWSYSTEM DEMAND SPLITTER OUTLET NODE 6,BASEVAVBOX COILHTG-3 WATER OUTLET NODE,Water Nodes
 Component Set,26,BRANCH,BASEHWSYSTEM DEMAND BRANCH 7,COIL:HEATING:WATER,BASEVAVBOX COILHTG-4,BASEHWSYSTEM DEMAND SPLITTER OUTLET NODE 7,BASEVAVBOX COILHTG-4 WATER OUTLET NODE,Water Nodes
 Component Set,27,BRANCH,BASEHWSYSTEM DEMAND BRANCH 8,COIL:HEATING:WATER,BASEVAVBOX COILHTG-5,BASEHWSYSTEM DEMAND SPLITTER OUTLET NODE 8,BASEVAVBOX COILHTG-5 WATER OUTLET NODE,Water Nodes
 Component Set,28,BRANCH,BASEHWSYSTEM DEMAND BRANCH 9,COIL:HEATING:WATER,BASEVAVBOX COILHTG-6,BASEHWSYSTEM DEMAND SPLITTER OUTLET NODE 9,BASEVAVBOX COILHTG-6 WATER OUTLET NODE,Water Nodes
 Component Set,29,BRANCH,BASEHWSYSTEM DEMAND BRANCH 10,COIL:HEATING:WATER,BASEVAVBOX COILHTG-7,BASEHWSYSTEM DEMAND SPLITTER OUTLET NODE 10,BASEVAVBOX COILHTG-7 WATER OUTLET NODE,Water Nodes
 Component Set,30,BRANCH,BASEHWSYSTEM DEMAND BRANCH 11,COIL:HEATING:WATER,BASEVAVBOX COILHTG-8,BASEHWSYSTEM DEMAND SPLITTER OUTLET NODE 11,BASEVAVBOX COILHTG-8 WATER OUTLET NODE,Water Nodes
 Component Set,31,BRANCH,BASEHWSYSTEM DEMAND BRANCH 12,COIL:HEATING:WATER,BASEVAVBOX COILHTG-9,BASEHWSYSTEM DEMAND SPLITTER OUTLET NODE 12,BASEVAVBOX COILHTG-9 WATER OUTLET NODE,Water Nodes
 Component Set,32,BRANCH,BASEHWSYSTEM DEMAND BRANCH 13,COIL:HEATING:WATER,BASEVAVBOX COILHTG-10,BASEHWSYSTEM DEMAND SPLITTER OUTLET NODE 13,BASEVAVBOX COILHTG-10 WATER OUTLET NODE,Water Nodes
 Component Set,33,BRANCH,BASEHWSYSTEM DEMAND BRANCH 14,COIL:HEATING:WATER,BASEVAVBOX COILHTG-11,BASEHWSYSTEM DEMAND SPLITTER OUTLET NODE 14,BASEVAVBOX COILHTG-11 WATER OUTLET NODE,Water Nodes
 Component Set,34,BRANCH,BASEHWSYSTEM DEMAND BRANCH 15,COIL:HEATING:WATER,BASEVAVBOX COILHTG-12,BASEHWSYSTEM DEMAND SPLITTER OUTLET NODE 15,BASEVAVBOX COILHTG-12 WATER OUTLET NODE,Water Nodes
 Component Set,35,BRANCH,BASEHWSYSTEM DEMAND BYPASS BRANCH,PIPE:ADIABATIC,BASEHWSYSTEM DEMAND BYPASS PIPE,BASEHWSYSTEM DEMAND BYPASS PIPE INLET NODE,BASEHWSYSTEM DEMAND BYPASS PIPE OUTLET NODE,Pipe Nodes
 Component Set,36,BRANCH,BASEHWSYSTEM DEMAND OUTLET BRANCH,PIPE:ADIABATIC,BASEHWSYSTEM DEMAND OUTLET PIPE,BASEHWSYSTEM DEMAND OUTLET PIPE NODE,BASEHWSYSTEM DEMAND MIXER OUTLET NODE,Pipe Nodes
 Component Set,37,BRANCH,NONRESBASEELECSHWSYSTEM SUPPLY INLET BRANCH,PUMP:VARIABLESPEED,{C73C7BEB-718F-477A-AC21-8051619F5EC2},NONRESBASEELECSHWSYSTEM SUPPLY INLET NODE,{C73C7BEB-718F-477A-AC21-8051619F5EC2} OUTLET NODE,Water Nodes
 Component Set,38,BRANCH,NONRESBASEELECSHWSYSTEM SUPPLY BRANCH 1,WATERHEATER:MIXED,NONRESBASEELECWATERHEATER,NONRESBASEELECSHWSYSTEM SUPPLY SPLITTER OUTLET NODE 1,NONRESBASEELECWATERHEATER SUPPLY OUTLET NODE,Use Side Water Nodes
 Component Set,39,BRANCH,NONRESBASEELECSHWSYSTEM SUPPLY OUTLET BRANCH,PIPE:ADIABATIC,NONRESBASEELECSHWSYSTEM SUPPLY OUTLET PIPE,NONRESBASEELECSHWSYSTEM SUPPLY OUTLET PIPE NODE,NONRESBASEELECSHWSYSTEM SUPPLY MIXER OUTLET NODE,Pipe Nodes
 Component Set,40,BRANCH,NONRESBASEELECSHWSYSTEM DEMAND INLET BRANCH,PIPE:ADIABATIC,NONRESBASEELECSHWSYSTEM DEMAND INLET PIPE,NONRESBASEELECSHWSYSTEM DEMAND INLET NODE,NONRESBASEELECSHWSYSTEM DEMAND INLET PIPE NODE,Pipe Nodes
 Component Set,41,BRANCH,NONRESBASEELECSHWSYSTEM DEMAND BRANCH 1,WATERUSE:CONNECTIONS,F1 BUSINESS CENTER WATER USE CONNECTION,NONRESBASEELECSHWSYSTEM DEMAND SPLITTER OUTLET NODE 1,F1 BUSINESS CENTER WATER USE CONNECTION OUTLET NODE,DHW Nodes
 Component Set,42,BRANCH,NONRESBASEELECSHWSYSTEM DEMAND BRANCH 2,WATERUSE:CONNECTIONS,F1 ELEVATOR CORE WATER USE CONNECTION,NONRESBASEELECSHWSYSTEM DEMAND SPLITTER OUTLET NODE 2,F1 ELEVATOR CORE WATER USE CONNECTION OUTLET NODE,DHW Nodes
 Component Set,43,BRANCH,NONRESBASEELECSHWSYSTEM DEMAND BRANCH 3,WATERUSE:CONNECTIONS,F1 ELEVATOR N WATER USE CONNECTION,NONRESBASEELECSHWSYSTEM DEMAND SPLITTER OUTLET NODE 3,F1 ELEVATOR N WATER USE CONNECTION OUTLET NODE,DHW Nodes
 Component Set,44,BRANCH,NONRESBASEELECSHWSYSTEM DEMAND BRANCH 4,WATERUSE:CONNECTIONS,F1 ELEVATOR S WATER USE CONNECTION,NONRESBASEELECSHWSYSTEM DEMAND SPLITTER OUTLET NODE 4,F1 ELEVATOR S WATER USE CONNECTION OUTLET NODE,DHW Nodes
 Component Set,45,BRANCH,NONRESBASEELECSHWSYSTEM DEMAND BRANCH 5,WATERUSE:CONNECTIONS,F1 LEASING OFFICE WATER USE CONNECTION,NONRESBASEELECSHWSYSTEM DEMAND SPLITTER OUTLET NODE 5,F1 LEASING OFFICE WATER USE CONNECTION OUTLET NODE,DHW Nodes
 Component Set,46,BRANCH,NONRESBASEELECSHWSYSTEM DEMAND BRANCH 6,WATERUSE:CONNECTIONS,F1 MECHANICAL ROOM WATER USE CONNECTION,NONRESBASEELECSHWSYSTEM DEMAND SPLITTER OUTLET NODE 6,F1 MECHANICAL ROOM WATER USE CONNECTION OUTLET NODE,DHW Nodes
 Component Set,47,BRANCH,NONRESBASEELECSHWSYSTEM DEMAND BRANCH 7,WATERUSE:CONNECTIONS,F1 RETAIL N CORE WATER USE CONNECTION,NONRESBASEELECSHWSYSTEM DEMAND SPLITTER OUTLET NODE 7,F1 RETAIL N CORE WATER USE CONNECTION OUTLET NODE,DHW Nodes
 Component Set,48,BRANCH,NONRESBASEELECSHWSYSTEM DEMAND BRANCH 8,WATERUSE:CONNECTIONS,F1 RETAIL NE CORE WATER USE CONNECTION,NONRESBASEELECSHWSYSTEM DEMAND SPLITTER OUTLET NODE 8,F1 RETAIL NE CORE WATER USE CONNECTION OUTLET NODE,DHW Nodes
 Component Set,49,BRANCH,NONRESBASEELECSHWSYSTEM DEMAND BRANCH 9,WATERUSE:CONNECTIONS,F1 RETAIL NE INNER WATER USE CONNECTION,NONRESBASEELECSHWSYSTEM DEMAND SPLITTER OUTLET NODE 9,F1 RETAIL NE INNER WATER USE CONNECTION OUTLET NODE,DHW Nodes
 Component Set,50,BRANCH,NONRESBASEELECSHWSYSTEM DEMAND BRANCH 10,WATERUSE:CONNECTIONS,F1 RETAIL NE OUTER WATER USE CONNECTION,NONRESBASEELECSHWSYSTEM DEMAND SPLITTER OUTLET NODE 10,F1 RETAIL NE OUTER WATER USE CONNECTION OUTLET NODE,DHW Nodes
 Component Set,51,BRANCH,NONRESBASEELECSHWSYSTEM DEMAND BRANCH 11,WATERUSE:CONNECTIONS,F1 RETAIL NW INNER CORE WATER USE CONNECTION,NONRESBASEELECSHWSYSTEM DEMAND SPLITTER OUTLET NODE 11,F1 RETAIL NW INNER CORE WATER USE CONNECTION OUTLET NODE,DHW Nodes
 Component Set,52,BRANCH,NONRESBASEELECSHWSYSTEM DEMAND BRANCH 12,WATERUSE:CONNECTIONS,F1 RETAIL NW OUTER WATER USE CONNECTION,NONRESBASEELECSHWSYSTEM DEMAND SPLITTER OUTLET NODE 12,F1 RETAIL NW OUTER WATER USE CONNECTION OUTLET NODE,DHW Nodes
 Component Set,53,BRANCH,NONRESBASEELECSHWSYSTEM DEMAND BRANCH 13,WATERUSE:CONNECTIONS,F1 RETAIL NW OUTER CORE WATER USE CONNECTION,NONRESBASEELECSHWSYSTEM DEMAND SPLITTER OUTLET NODE 13,F1 RETAIL NW OUTER CORE WATER USE CONNECTION OUTLET NODE,DHW Nodes
 Component Set,54,BRANCH,NONRESBASEELECSHWSYSTEM DEMAND BRANCH 14,WATERUSE:CONNECTIONS,F1 RETAIL SE BOTTOM WATER USE CONNECTION,NONRESBASEELECSHWSYSTEM DEMAND SPLITTER OUTLET NODE 14,F1 RETAIL SE BOTTOM WATER USE CONNECTION OUTLET NODE,DHW Nodes
 Component Set,55,BRANCH,NONRESBASEELECSHWSYSTEM DEMAND BRANCH 15,WATERUSE:CONNECTIONS,F1 RETAIL SE TOP WATER USE CONNECTION,NONRESBASEELECSHWSYSTEM DEMAND SPLITTER OUTLET NODE 15,F1 RETAIL SE TOP WATER USE CONNECTION OUTLET NODE,DHW Nodes
 Component Set,56,BRANCH,NONRESBASEELECSHWSYSTEM DEMAND BRANCH 16,WATERUSE:CONNECTIONS,F1 RETAIL SW BOTTOM WATER USE CONNECTION,NONRESBASEELECSHWSYSTEM DEMAND SPLITTER OUTLET NODE 16,F1 RETAIL SW BOTTOM WATER USE CONNECTION OUTLET NODE,DHW Nodes
 Component Set,57,BRANCH,NONRESBASEELECSHWSYSTEM DEMAND BRANCH 17,WATERUSE:CONNECTIONS,F1 RETAIL SW CORE WATER USE CONNECTION,NONRESBASEELECSHWSYSTEM DEMAND SPLITTER OUTLET NODE 17,F1 RETAIL SW CORE WATER USE CONNECTION OUTLET NODE,DHW Nodes
 Component Set,58,BRANCH,NONRESBASEELECSHWSYSTEM DEMAND BRANCH 18,WATERUSE:CONNECTIONS,F1 RETAIL SW TOP WATER USE CONNECTION,NONRESBASEELECSHWSYSTEM DEMAND SPLITTER OUTLET NODE 18,F1 RETAIL SW TOP WATER USE CONNECTION OUTLET NODE,DHW Nodes
 Component Set,59,BRANCH,NONRESBASEELECSHWSYSTEM DEMAND BRANCH 19,WATERUSE:CONNECTIONS,F2-4 ELEVATOR CORE WATER USE CONNECTION,NONRESBASEELECSHWSYSTEM DEMAND SPLITTER OUTLET NODE 19,F2-4 ELEVATOR CORE WATER USE CONNECTION OUTLET NODE,DHW Nodes
 Component Set,60,BRANCH,NONRESBASEELECSHWSYSTEM DEMAND BRANCH 20,WATERUSE:CONNECTIONS,F2-4 ELEVATOR N WATER USE CONNECTION,NONRESBASEELECSHWSYSTEM DEMAND SPLITTER OUTLET NODE 20,F2-4 ELEVATOR N WATER USE CONNECTION OUTLET NODE,DHW Nodes
 Component Set,61,BRANCH,NONRESBASEELECSHWSYSTEM DEMAND BRANCH 21,WATERUSE:CONNECTIONS,F2-4 ELEVATOR S WATER USE CONNECTION,NONRESBASEELECSHWSYSTEM DEMAND SPLITTER OUTLET NODE 21,F2-4 ELEVATOR S WATER USE CONNECTION OUTLET NODE,DHW Nodes
 Component Set,62,BRANCH,NONRESBASEELECSHWSYSTEM DEMAND BRANCH 22,WATERUSE:CONNECTIONS,F5 ELEVATOR CORE WATER USE CONNECTION,NONRESBASEELECSHWSYSTEM DEMAND SPLITTER OUTLET NODE 22,F5 ELEVATOR CORE WATER USE CONNECTION OUTLET NODE,DHW Nodes
 Component Set,63,BRANCH,NONRESBASEELECSHWSYSTEM DEMAND BRANCH 23,WATERUSE:CONNECTIONS,F5 ELEVATOR N WATER USE CONNECTION,NONRESBASEELECSHWSYSTEM DEMAND SPLITTER OUTLET NODE 23,F5 ELEVATOR N WATER USE CONNECTION OUTLET NODE,DHW Nodes
 Component Set,64,BRANCH,NONRESBASEELECSHWSYSTEM DEMAND BRANCH 24,WATERUSE:CONNECTIONS,F5 ELEVATOR S WATER USE CONNECTION,NONRESBASEELECSHWSYSTEM DEMAND SPLITTER OUTLET NODE 24,F5 ELEVATOR S WATER USE CONNECTION OUTLET NODE,DHW Nodes
 Component Set,65,BRANCH,NONRESBASEELECSHWSYSTEM DEMAND BYPASS BRANCH,PIPE:ADIABATIC,NONRESBASEELECSHWSYSTEM DEMAND BYPASS PIPE,NONRESBASEELECSHWSYSTEM DEMAND BYPASS PIPE INLET NODE,NONRESBASEELECSHWSYSTEM DEMAND BYPASS PIPE OUTLET NODE,Pipe Nodes
 Component Set,66,BRANCH,NONRESBASEELECSHWSYSTEM DEMAND OUTLET BRANCH,PIPE:ADIABATIC,NONRESBASEELECSHWSYSTEM DEMAND OUTLET PIPE,NONRESBASEELECSHWSYSTEM DEMAND OUTLET PIPE NODE,NONRESBASEELECSHWSYSTEM DEMAND MIXER OUTLET NODE,Pipe Nodes
 Component Set,67,BRANCH,NONRESBASEGASSHWSYSTEM SUPPLY INLET BRANCH,PUMP:VARIABLESPEED,{BDF7A154-F49A-4214-B3F6-CBFA2D9831EF},NONRESBASEGASSHWSYSTEM SUPPLY INLET NODE,{BDF7A154-F49A-4214-B3F6-CBFA2D9831EF} OUTLET NODE,Water Nodes
 Component Set,68,BRANCH,NONRESBASEGASSHWSYSTEM SUPPLY BRANCH 1,WATERHEATER:MIXED,NONRESBASEGASWATERHEATER,NONRESBASEGASSHWSYSTEM SUPPLY SPLITTER OUTLET NODE 1,NONRESBASEGASWATERHEATER SUPPLY OUTLET NODE,Use Side Water Nodes
 Component Set,69,BRANCH,NONRESBASEGASSHWSYSTEM SUPPLY OUTLET BRANCH,PIPE:ADIABATIC,NONRESBASEGASSHWSYSTEM SUPPLY OUTLET PIPE,NONRESBASEGASSHWSYSTEM SUPPLY OUTLET PIPE NODE,NONRESBASEGASSHWSYSTEM SUPPLY MIXER OUTLET NODE,Pipe Nodes
 Component Set,70,BRANCH,NONRESBASEGASSHWSYSTEM DEMAND INLET BRANCH,PIPE:ADIABATIC,NONRESBASEGASSHWSYSTEM DEMAND INLET PIPE,NONRESBASEGASSHWSYSTEM DEMAND INLET NODE,NONRESBASEGASSHWSYSTEM DEMAND INLET PIPE NODE,Pipe Nodes
 Component Set,71,BRANCH,NONRESBASEGASSHWSYSTEM DEMAND BRANCH 1,WATERUSE:CONNECTIONS,F1 LOUNGE WATER USE CONNECTION,NONRESBASEGASSHWSYSTEM DEMAND SPLITTER OUTLET NODE 1,F1 LOUNGE WATER USE CONNECTION OUTLET NODE,DHW Nodes
 Component Set,72,BRANCH,NONRESBASEGASSHWSYSTEM DEMAND BRANCH 2,WATERUSE:CONNECTIONS,F1 FITNESS CENTER WATER USE CONNECTION,NONRESBASEGASSHWSYSTEM DEMAND SPLITTER OUTLET NODE 2,F1 FITNESS CENTER WATER USE CONNECTION OUTLET NODE,DHW Nodes
 Component Set,73,BRANCH,NONRESBASEGASSHWSYSTEM DEMAND BRANCH 3,WATERUSE:CONNECTIONS,F2-4 LAUNDRY WATER USE CONNECTION,NONRESBASEGASSHWSYSTEM DEMAND SPLITTER OUTLET NODE 3,F2-4 LAUNDRY WATER USE CONNECTION OUTLET NODE,DHW Nodes
 Component Set,74,BRANCH,NONRESBASEGASSHWSYSTEM DEMAND BRANCH 4,WATERUSE:CONNECTIONS,F5 LAUNDRY WATER USE CONNECTION,NONRESBASEGASSHWSYSTEM DEMAND SPLITTER OUTLET NODE 4,F5 LAUNDRY WATER USE CONNECTION OUTLET NODE,DHW Nodes
 Component Set,75,BRANCH,NONRESBASEGASSHWSYSTEM DEMAND BYPASS BRANCH,PIPE:ADIABATIC,NONRESBASEGASSHWSYSTEM DEMAND BYPASS PIPE,NONRESBASEGASSHWSYSTEM DEMAND BYPASS PIPE INLET NODE,NONRESBASEGASSHWSYSTEM DEMAND BYPASS PIPE OUTLET NODE,Pipe Nodes
 Component Set,76,BRANCH,NONRESBASEGASSHWSYSTEM DEMAND OUTLET BRANCH,PIPE:ADIABATIC,NONRESBASEGASSHWSYSTEM DEMAND OUTLET PIPE,NONRESBASEGASSHWSYSTEM DEMAND OUTLET PIPE NODE,NONRESBASEGASSHWSYSTEM DEMAND MIXER OUTLET NODE,Pipe Nodes
 Component Set,77,ZONEHVAC:AIRDISTRIBUTIONUNIT,ADU BASEVAVBOX TRMLUNIT,AIRTERMINAL:SINGLEDUCT:VAV:REHEAT,BASEVAVBOX TRMLUNIT,BASEAIRSYS5 ZONE SPLITTER OUTLET NODE 1,BASEVAVBOX TRMLUNIT OUTLET NODE,Air Nodes
 Component Set,78,ZONEHVAC:AIRDISTRIBUTIONUNIT,ADU BASEVAVBOX TRMLUNIT-2,AIRTERMINAL:SINGLEDUCT:VAV:REHEAT,BASEVAVBOX TRMLUNIT-2,BASEAIRSYS5 ZONE SPLITTER OUTLET NODE 2,BASEVAVBOX TRMLUNIT-2 OUTLET NODE,Air Nodes
 Component Set,79,ZONEHVAC:AIRDISTRIBUTIONUNIT,ADU BASEVAVBOX TRMLUNIT-4,AIRTERMINAL:SINGLEDUCT:VAV:REHEAT,BASEVAVBOX TRMLUNIT-4,BASEAIRSYS5 ZONE SPLITTER OUTLET NODE 4,BASEVAVBOX TRMLUNIT-4 OUTLET NODE,Air Nodes
 Component Set,80,ZONEHVAC:AIRDISTRIBUTIONUNIT,ADU BASEVAVBOX TRMLUNIT-5,AIRTERMINAL:SINGLEDUCT:VAV:REHEAT,BASEVAVBOX TRMLUNIT-5,BASEAIRSYS5 ZONE SPLITTER OUTLET NODE 5,BASEVAVBOX TRMLUNIT-5 OUTLET NODE,Air Nodes
 Component Set,81,ZONEHVAC:AIRDISTRIBUTIONUNIT,ADU BASEVAVBOX TRMLUNIT-3,AIRTERMINAL:SINGLEDUCT:VAV:REHEAT,BASEVAVBOX TRMLUNIT-3,BASEAIRSYS5 ZONE SPLITTER OUTLET NODE 3,BASEVAVBOX TRMLUNIT-3 OUTLET NODE,Air Nodes
 Component Set,82,ZONEHVAC:AIRDISTRIBUTIONUNIT,ADU BASEVAVBOX TRMLUNIT-6,AIRTERMINAL:SINGLEDUCT:VAV:REHEAT,BASEVAVBOX TRMLUNIT-6,BASEAIRSYS5 ZONE SPLITTER OUTLET NODE 6,BASEVAVBOX TRMLUNIT-6 OUTLET NODE,Air Nodes
 Component Set,83,ZONEHVAC:AIRDISTRIBUTIONUNIT,ADU BASEVAVBOX TRMLUNIT-7,AIRTERMINAL:SINGLEDUCT:VAV:REHEAT,BASEVAVBOX TRMLUNIT-7,BASEAIRSYS5 ZONE SPLITTER OUTLET NODE 7,BASEVAVBOX TRMLUNIT-7 OUTLET NODE,Air Nodes
 Component Set,84,ZONEHVAC:AIRDISTRIBUTIONUNIT,ADU BASEVAVBOX TRMLUNIT-8,AIRTERMINAL:SINGLEDUCT:VAV:REHEAT,BASEVAVBOX TRMLUNIT-8,BASEAIRSYS5 ZONE SPLITTER OUTLET NODE 8,BASEVAVBOX TRMLUNIT-8 OUTLET NODE,Air Nodes
 Component Set,85,ZONEHVAC:AIRDISTRIBUTIONUNIT,ADU BASEVAVBOX TRMLUNIT-9,AIRTERMINAL:SINGLEDUCT:VAV:REHEAT,BASEVAVBOX TRMLUNIT-9,BASEAIRSYS5 ZONE SPLITTER OUTLET NODE 9,BASEVAVBOX TRMLUNIT-9 OUTLET NODE,Air Nodes
 Component Set,86,ZONEHVAC:AIRDISTRIBUTIONUNIT,ADU BASEVAVBOX TRMLUNIT-10,AIRTERMINAL:SINGLEDUCT:VAV:REHEAT,BASEVAVBOX TRMLUNIT-10,BASEAIRSYS5 ZONE SPLITTER OUTLET NODE 10,BASEVAVBOX TRMLUNIT-10 OUTLET NODE,Air Nodes
 Component Set,87,ZONEHVAC:AIRDISTRIBUTIONUNIT,ADU BASEVAVBOX TRMLUNIT-11,AIRTERMINAL:SINGLEDUCT:VAV:REHEAT,BASEVAVBOX TRMLUNIT-11,BASEAIRSYS5-2 ZONE SPLITTER OUTLET NODE 1,BASEVAVBOX TRMLUNIT-11 OUTLET NODE,Air Nodes
 Component Set,88,ZONEHVAC:AIRDISTRIBUTIONUNIT,ADU BASEVAVBOX TRMLUNIT-12,AIRTERMINAL:SINGLEDUCT:VAV:REHEAT,BASEVAVBOX TRMLUNIT-12,BASEAIRSYS5-3 ZONE SPLITTER OUTLET NODE 1,BASEVAVBOX TRMLUNIT-12 OUTLET NODE,Air Nodes
 Component Set,89,AIRTERMINAL:SINGLEDUCT:VAV:REHEAT,BASEVAVBOX TRMLUNIT,COIL:HEATING:WATER,BASEVAVBOX COILHTG,BASEVAVBOX TRMLUNIT DAMPER OUTLET,BASEVAVBOX TRMLUNIT OUTLET NODE,Air Nodes
 Component Set,90,AIRTERMINAL:SINGLEDUCT:VAV:REHEAT,BASEVAVBOX TRMLUNIT-2,COIL:HEATING:WATER,BASEVAVBOX COILHTG-2,BASEVAVBOX TRMLUNIT-2 DAMPER OUTLET,BASEVAVBOX TRMLUNIT-2 OUTLET NODE,Air Nodes
 Component Set,91,AIRTERMINAL:SINGLEDUCT:VAV:REHEAT,BASEVAVBOX TRMLUNIT-4,COIL:HEATING:WATER,BASEVAVBOX COILHTG-4,BASEVAVBOX TRMLUNIT-4 DAMPER OUTLET,BASEVAVBOX TRMLUNIT-4 OUTLET NODE,Air Nodes
 Component Set,92,AIRTERMINAL:SINGLEDUCT:VAV:REHEAT,BASEVAVBOX TRMLUNIT-5,COIL:HEATING:WATER,BASEVAVBOX COILHTG-5,BASEVAVBOX TRMLUNIT-5 DAMPER OUTLET,BASEVAVBOX TRMLUNIT-5 OUTLET NODE,Air Nodes
 Component Set,93,AIRTERMINAL:SINGLEDUCT:VAV:REHEAT,BASEVAVBOX TRMLUNIT-3,COIL:HEATING:WATER,BASEVAVBOX COILHTG-3,BASEVAVBOX TRMLUNIT-3 DAMPER OUTLET,BASEVAVBOX TRMLUNIT-3 OUTLET NODE,Air Nodes
 Component Set,94,AIRTERMINAL:SINGLEDUCT:VAV:REHEAT,BASEVAVBOX TRMLUNIT-6,COIL:HEATING:WATER,BASEVAVBOX COILHTG-6,BASEVAVBOX TRMLUNIT-6 DAMPER OUTLET,BASEVAVBOX TRMLUNIT-6 OUTLET NODE,Air Nodes
 Component Set,95,AIRTERMINAL:SINGLEDUCT:VAV:REHEAT,BASEVAVBOX TRMLUNIT-7,COIL:HEATING:WATER,BASEVAVBOX COILHTG-7,BASEVAVBOX TRMLUNIT-7 DAMPER OUTLET,BASEVAVBOX TRMLUNIT-7 OUTLET NODE,Air Nodes
 Component Set,96,AIRTERMINAL:SINGLEDUCT:VAV:REHEAT,BASEVAVBOX TRMLUNIT-8,COIL:HEATING:WATER,BASEVAVBOX COILHTG-8,BASEVAVBOX TRMLUNIT-8 DAMPER OUTLET,BASEVAVBOX TRMLUNIT-8 OUTLET NODE,Air Nodes
 Component Set,97,AIRTERMINAL:SINGLEDUCT:VAV:REHEAT,BASEVAVBOX TRMLUNIT-9,COIL:HEATING:WATER,BASEVAVBOX COILHTG-9,BASEVAVBOX TRMLUNIT-9 DAMPER OUTLET,BASEVAVBOX TRMLUNIT-9 OUTLET NODE,Air Nodes
 Component Set,98,AIRTERMINAL:SINGLEDUCT:VAV:REHEAT,BASEVAVBOX TRMLUNIT-10,COIL:HEATING:WATER,BASEVAVBOX COILHTG-10,BASEVAVBOX TRMLUNIT-10 DAMPER OUTLET,BASEVAVBOX TRMLUNIT-10 OUTLET NODE,Air Nodes
 Component Set,99,AIRTERMINAL:SINGLEDUCT:VAV:REHEAT,BASEVAVBOX TRMLUNIT-11,COIL:HEATING:WATER,BASEVAVBOX COILHTG-11,BASEVAVBOX TRMLUNIT-11 DAMPER OUTLET,BASEVAVBOX TRMLUNIT-11 OUTLET NODE,Air Nodes
 Component Set,100,AIRTERMINAL:SINGLEDUCT:VAV:REHEAT,BASEVAVBOX TRMLUNIT-12,COIL:HEATING:WATER,BASEVAVBOX COILHTG-12,BASEVAVBOX TRMLUNIT-12 DAMPER OUTLET,BASEVAVBOX TRMLUNIT-12 OUTLET NODE,Air Nodes
 Component Set,101,AIRLOOPHVAC:OUTDOORAIRSYSTEM,BASESYS5 OACTRL OA SYSTEM,OUTDOORAIR:MIXER,BASESYS5 OACTRL OA SYSTEM OUTDOOR AIR MIXER,BASESYS5 OACTRL OA SYSTEM OA NODE,BASESYS5 OACTRL OA SYSTEM MIXED AIR NODE,Air Nodes
 Component Set,102,AIRLOOPHVAC:OUTDOORAIRSYSTEM,BASESYS5 OACTRL-2 OA SYSTEM,OUTDOORAIR:MIXER,BASESYS5 OACTRL-2 OA SYSTEM OUTDOOR AIR MIXER,BASESYS5 OACTRL-2 OA SYSTEM OA NODE,BASESYS5 OACTRL-2 OA SYSTEM MIXED AIR NODE,Air Nodes
 Component Set,103,AIRLOOPHVAC:OUTDOORAIRSYSTEM,BASESYS5 OACTRL-3 OA SYSTEM,OUTDOORAIR:MIXER,BASESYS5 OACTRL-3 OA SYSTEM OUTDOOR AIR MIXER,BASESYS5 OACTRL-3 OA SYSTEM OA NODE,BASESYS5 OACTRL-3 OA SYSTEM MIXED AIR NODE,Air Nodes
 Component Set,104,ZONEHVAC:PACKAGEDTERMINALAIRCONDITIONER,BASEZNSYS1-3,FAN:ONOFF,BASESYS1 FAN-3,BASEZNSYS1-3 HEATING COIL OUTLET NODE,BASEZNSYS1-3 OUTLET NODE,Air Nodes
 Component Set,105,ZONEHVAC:PACKAGEDTERMINALAIRCONDITIONER,BASEZNSYS1,FAN:ONOFF,BASESYS1 FAN,BASEZNSYS1 HEATING COIL OUTLET NODE,BASEZNSYS1 OUTLET NODE,Air Nodes
 Component Set,106,ZONEHVAC:PACKAGEDTERMINALAIRCONDITIONER,BASEZNSYS1-2,FAN:ONOFF,BASESYS1 FAN-2,BASEZNSYS1-2 HEATING COIL OUTLET NODE,BASEZNSYS1-2 OUTLET NODE,Air Nodes
 Component Set,107,ZONEHVAC:PACKAGEDTERMINALAIRCONDITIONER,BASEZNSYS1-4,FAN:ONOFF,BASESYS1 FAN-4,BASEZNSYS1-4 HEATING COIL OUTLET NODE,BASEZNSYS1-4 OUTLET NODE,Air Nodes
 Component Set,108,ZONEHVAC:PACKAGEDTERMINALAIRCONDITIONER,BASEZNSYS1-5,FAN:ONOFF,BASESYS1 FAN-5,BASEZNSYS1-5 HEATING COIL OUTLET NODE,BASEZNSYS1-5 OUTLET NODE,Air Nodes
 Component Set,109,ZONEHVAC:PACKAGEDTERMINALAIRCONDITIONER,BASEZNSYS1-6,FAN:ONOFF,BASESYS1 FAN-6,BASEZNSYS1-6 HEATING COIL OUTLET NODE,BASEZNSYS1-6 OUTLET NODE,Air Nodes
 Component Set,110,ZONEHVAC:PACKAGEDTERMINALAIRCONDITIONER,BASEZNSYS1-7,FAN:ONOFF,BASESYS1 FAN-7,BASEZNSYS1-7 HEATING COIL OUTLET NODE,BASEZNSYS1-7 OUTLET NODE,Air Nodes
 Component Set,111,ZONEHVAC:PACKAGEDTERMINALAIRCONDITIONER,BASEZNSYS1-8,FAN:ONOFF,BASESYS1 FAN-8,BASEZNSYS1-8 HEATING COIL OUTLET NODE,BASEZNSYS1-8 OUTLET NODE,Air Nodes
 Component Set,112,ZONEHVAC:PACKAGEDTERMINALAIRCONDITIONER,BASEZNSYS1-9,FAN:ONOFF,BASESYS1 FAN-9,BASEZNSYS1-9 HEATING COIL OUTLET NODE,BASEZNSYS1-9 OUTLET NODE,Air Nodes
 Component Set,113,ZONEHVAC:PACKAGEDTERMINALAIRCONDITIONER,BASEZNSYS1-10,FAN:ONOFF,BASESYS1 FAN-10,BASEZNSYS1-10 HEATING COIL OUTLET NODE,BASEZNSYS1-10 OUTLET NODE,Air Nodes
 Component Set,114,ZONEHVAC:PACKAGEDTERMINALAIRCONDITIONER,BASEZNSYS1-11,FAN:ONOFF,BASESYS1 FAN-11,BASEZNSYS1-11 HEATING COIL OUTLET NODE,BASEZNSYS1-11 OUTLET NODE,Air Nodes
 Component Set,115,ZONEHVAC:PACKAGEDTERMINALAIRCONDITIONER,BASEZNSYS1-14,FAN:ONOFF,BASESYS1 FAN-14,BASEZNSYS1-14 HEATING COIL OUTLET NODE,BASEZNSYS1-14 OUTLET NODE,Air Nodes
 Component Set,116,ZONEHVAC:PACKAGEDTERMINALAIRCONDITIONER,BASEZNSYS1-12,FAN:ONOFF,BASESYS1 FAN-12,BASEZNSYS1-12 HEATING COIL OUTLET NODE,BASEZNSYS1-12 OUTLET NODE,Air Nodes
 Component Set,117,ZONEHVAC:PACKAGEDTERMINALAIRCONDITIONER,BASEZNSYS1-13,FAN:ONOFF,BASESYS1 FAN-13,BASEZNSYS1-13 HEATING COIL OUTLET NODE,BASEZNSYS1-13 OUTLET NODE,Air Nodes
 Component Set,118,ZONEHVAC:PACKAGEDTERMINALAIRCONDITIONER,BASEZNSYS1-15,FAN:ONOFF,BASESYS1 FAN-15,BASEZNSYS1-15 HEATING COIL OUTLET NODE,BASEZNSYS1-15 OUTLET NODE,Air Nodes
 Component Set,119,ZONEHVAC:PACKAGEDTERMINALAIRCONDITIONER,BASEZNSYS1-16,FAN:ONOFF,BASESYS1 FAN-16,BASEZNSYS1-16 HEATING COIL OUTLET NODE,BASEZNSYS1-16 OUTLET NODE,Air Nodes
 Component Set,120,ZONEHVAC:PACKAGEDTERMINALAIRCONDITIONER,BASEZNSYS1-17,FAN:ONOFF,BASESYS1 FAN-17,BASEZNSYS1-17 HEATING COIL OUTLET NODE,BASEZNSYS1-17 OUTLET NODE,Air Nodes
 Component Set,121,ZONEHVAC:PACKAGEDTERMINALAIRCONDITIONER,BASEZNSYS1-18,FAN:ONOFF,BASESYS1 FAN-18,BASEZNSYS1-18 HEATING COIL OUTLET NODE,BASEZNSYS1-18 OUTLET NODE,Air Nodes
 Component Set,122,ZONEHVAC:PACKAGEDTERMINALAIRCONDITIONER,BASEZNSYS1-19,FAN:ONOFF,BASESYS1 FAN-19,BASEZNSYS1-19 HEATING COIL OUTLET NODE,BASEZNSYS1-19 OUTLET NODE,Air Nodes
 Component Set,123,ZONEHVAC:PACKAGEDTERMINALAIRCONDITIONER,BASEZNSYS1-20,FAN:ONOFF,BASESYS1 FAN-20,BASEZNSYS1-20 HEATING COIL OUTLET NODE,BASEZNSYS1-20 OUTLET NODE,Air Nodes
 Component Set,124,ZONEHVAC:PACKAGEDTERMINALAIRCONDITIONER,BASEZNSYS1-21,FAN:ONOFF,BASESYS1 FAN-21,BASEZNSYS1-21 HEATING COIL OUTLET NODE,BASEZNSYS1-21 OUTLET NODE,Air Nodes
 Component Set,125,ZONEHVAC:PACKAGEDTERMINALAIRCONDITIONER,BASEZNSYS1-22,FAN:ONOFF,BASESYS1 FAN-22,BASEZNSYS1-22 HEATING COIL OUTLET NODE,BASEZNSYS1-22 OUTLET NODE,Air Nodes
 Component Set,126,ZONEHVAC:PACKAGEDTERMINALAIRCONDITIONER,BASEZNSYS1-3,COIL:HEATING:FUEL,BASESYS1 COILHTG-3,BASEZNSYS1-3 COOLING COIL OUTLET NODE,BASEZNSYS1-3 HEATING COIL OUTLET NODE,Air Nodes
 Component Set,127,ZONEHVAC:PACKAGEDTERMINALAIRCONDITIONER,BASEZNSYS1,COIL:HEATING:FUEL,BASESYS1 COILHTG,BASEZNSYS1 COOLING COIL OUTLET NODE,BASEZNSYS1 HEATING COIL OUTLET NODE,Air Nodes
 Component Set,128,ZONEHVAC:PACKAGEDTERMINALAIRCONDITIONER,BASEZNSYS1-2,COIL:HEATING:FUEL,BASESYS1 COILHTG-2,BASEZNSYS1-2 COOLING COIL OUTLET NODE,BASEZNSYS1-2 HEATING COIL OUTLET NODE,Air Nodes
 Component Set,129,ZONEHVAC:PACKAGEDTERMINALAIRCONDITIONER,BASEZNSYS1-4,COIL:HEATING:FUEL,BASESYS1 COILHTG-4,BASEZNSYS1-4 COOLING COIL OUTLET NODE,BASEZNSYS1-4 HEATING COIL OUTLET NODE,Air Nodes
 Component Set,130,ZONEHVAC:PACKAGEDTERMINALAIRCONDITIONER,BASEZNSYS1-5,COIL:HEATING:FUEL,BASESYS1 COILHTG-5,BASEZNSYS1-5 COOLING COIL OUTLET NODE,BASEZNSYS1-5 HEATING COIL OUTLET NODE,Air Nodes
 Component Set,131,ZONEHVAC:PACKAGEDTERMINALAIRCONDITIONER,BASEZNSYS1-6,COIL:HEATING:FUEL,BASESYS1 COILHTG-6,BASEZNSYS1-6 COOLING COIL OUTLET NODE,BASEZNSYS1-6 HEATING COIL OUTLET NODE,Air Nodes
 Component Set,132,ZONEHVAC:PACKAGEDTERMINALAIRCONDITIONER,BASEZNSYS1-7,COIL:HEATING:FUEL,BASESYS1 COILHTG-7,BASEZNSYS1-7 COOLING COIL OUTLET NODE,BASEZNSYS1-7 HEATING COIL OUTLET NODE,Air Nodes
 Component Set,133,ZONEHVAC:PACKAGEDTERMINALAIRCONDITIONER,BASEZNSYS1-8,COIL:HEATING:FUEL,BASESYS1 COILHTG-8,BASEZNSYS1-8 COOLING COIL OUTLET NODE,BASEZNSYS1-8 HEATING COIL OUTLET NODE,Air Nodes
 Component Set,134,ZONEHVAC:PACKAGEDTERMINALAIRCONDITIONER,BASEZNSYS1-9,COIL:HEATING:FUEL,BASESYS1 COILHTG-9,BASEZNSYS1-9 COOLING COIL OUTLET NODE,BASEZNSYS1-9 HEATING COIL OUTLET NODE,Air Nodes
 Component Set,135,ZONEHVAC:PACKAGEDTERMINALAIRCONDITIONER,BASEZNSYS1-10,COIL:HEATING:FUEL,BASESYS1 COILHTG-10,BASEZNSYS1-10 COOLING COIL OUTLET NODE,BASEZNSYS1-10 HEATING COIL OUTLET NODE,Air Nodes
 Component Set,136,ZONEHVAC:PACKAGEDTERMINALAIRCONDITIONER,BASEZNSYS1-11,COIL:HEATING:FUEL,BASESYS1 COILHTG-11,BASEZNSYS1-11 COOLING COIL OUTLET NODE,BASEZNSYS1-11 HEATING COIL OUTLET NODE,Air Nodes
 Component Set,137,ZONEHVAC:PACKAGEDTERMINALAIRCONDITIONER,BASEZNSYS1-14,COIL:HEATING:FUEL,BASESYS1 COILHTG-14,BASEZNSYS1-14 COOLING COIL OUTLET NODE,BASEZNSYS1-14 HEATING COIL OUTLET NODE,Air Nodes
 Component Set,138,ZONEHVAC:PACKAGEDTERMINALAIRCONDITIONER,BASEZNSYS1-12,COIL:HEATING:FUEL,BASESYS1 COILHTG-12,BASEZNSYS1-12 COOLING COIL OUTLET NODE,BASEZNSYS1-12 HEATING COIL OUTLET NODE,Air Nodes
 Component Set,139,ZONEHVAC:PACKAGEDTERMINALAIRCONDITIONER,BASEZNSYS1-13,COIL:HEATING:FUEL,BASESYS1 COILHTG-13,BASEZNSYS1-13 COOLING COIL OUTLET NODE,BASEZNSYS1-13 HEATING COIL OUTLET NODE,Air Nodes
 Component Set,140,ZONEHVAC:PACKAGEDTERMINALAIRCONDITIONER,BASEZNSYS1-15,COIL:HEATING:FUEL,BASESYS1 COILHTG-15,BASEZNSYS1-15 COOLING COIL OUTLET NODE,BASEZNSYS1-15 HEATING COIL OUTLET NODE,Air Nodes
 Component Set,141,ZONEHVAC:PACKAGEDTERMINALAIRCONDITIONER,BASEZNSYS1-16,COIL:HEATING:FUEL,BASESYS1 COILHTG-16,BASEZNSYS1-16 COOLING COIL OUTLET NODE,BASEZNSYS1-16 HEATING COIL OUTLET NODE,Air Nodes
 Component Set,142,ZONEHVAC:PACKAGEDTERMINALAIRCONDITIONER,BASEZNSYS1-17,COIL:HEATING:FUEL,BASESYS1 COILHTG-17,BASEZNSYS1-17 COOLING COIL OUTLET NODE,BASEZNSYS1-17 HEATING COIL OUTLET NODE,Air Nodes
 Component Set,143,ZONEHVAC:PACKAGEDTERMINALAIRCONDITIONER,BASEZNSYS1-18,COIL:HEATING:FUEL,BASESYS1 COILHTG-18,BASEZNSYS1-18 COOLING COIL OUTLET NODE,BASEZNSYS1-18 HEATING COIL OUTLET NODE,Air Nodes
 Component Set,144,ZONEHVAC:PACKAGEDTERMINALAIRCONDITIONER,BASEZNSYS1-19,COIL:HEATING:FUEL,BASESYS1 COILHTG-19,BASEZNSYS1-19 COOLING COIL OUTLET NODE,BASEZNSYS1-19 HEATING COIL OUTLET NODE,Air Nodes
 Component Set,145,ZONEHVAC:PACKAGEDTERMINALAIRCONDITIONER,BASEZNSYS1-20,COIL:HEATING:FUEL,BASESYS1 COILHTG-20,BASEZNSYS1-20 COOLING COIL OUTLET NODE,BASEZNSYS1-20 HEATING COIL OUTLET NODE,Air Nodes
[...]
 Non-Parent Node Connection,BASEZNSYS1-7 OUTLET NODE,FAN:ONOFF,BASESYS1 FAN-7,Outlet,1
 Non-Parent Node Connection,BASEZNSYS1-8 HEATING COIL OUTLET NODE,FAN:ONOFF,BASESYS1 FAN-8,Inlet,1
 Non-Parent Node Connection,BASEZNSYS1-8 OUTLET NODE,FAN:ONOFF,BASESYS1 FAN-8,Outlet,1
 Non-Parent Node Connection,BASEZNSYS1-9 HEATING COIL OUTLET NODE,FAN:ONOFF,BASESYS1 FAN-9,Inlet,1
 Non-Parent Node Connection,BASEZNSYS1-9 OUTLET NODE,FAN:ONOFF,BASESYS1 FAN-9,Outlet,1
 Non-Parent Node Connection,BASEZNSYS1-10 HEATING COIL OUTLET NODE,FAN:ONOFF,BASESYS1 FAN-10,Inlet,1
 Non-Parent Node Connection,BASEZNSYS1-10 OUTLET NODE,FAN:ONOFF,BASESYS1 FAN-10,Outlet,1
 Non-Parent Node Connection,BASEZNSYS1-11 HEATING COIL OUTLET NODE,FAN:ONOFF,BASESYS1 FAN-11,Inlet,1
 Non-Parent Node Connection,BASEZNSYS1-11 OUTLET NODE,FAN:ONOFF,BASESYS1 FAN-11,Outlet,1
 Non-Parent Node Connection,BASEZNSYS1-14 HEATING COIL OUTLET NODE,FAN:ONOFF,BASESYS1 FAN-14,Inlet,1
 Non-Parent Node Connection,BASEZNSYS1-14 OUTLET NODE,FAN:ONOFF,BASESYS1 FAN-14,Outlet,1
 Non-Parent Node Connection,BASEZNSYS1-12 HEATING COIL OUTLET NODE,FAN:ONOFF,BASESYS1 FAN-12,Inlet,1
 Non-Parent Node Connection,BASEZNSYS1-12 OUTLET NODE,FAN:ONOFF,BASESYS1 FAN-12,Outlet,1
 Non-Parent Node Connection,BASEZNSYS1-13 HEATING COIL OUTLET NODE,FAN:ONOFF,BASESYS1 FAN-13,Inlet,1
 Non-Parent Node Connection,BASEZNSYS1-13 OUTLET NODE,FAN:ONOFF,BASESYS1 FAN-13,Outlet,1
 Non-Parent Node Connection,BASEZNSYS1-15 HEATING COIL OUTLET NODE,FAN:ONOFF,BASESYS1 FAN-15,Inlet,1
 Non-Parent Node Connection,BASEZNSYS1-15 OUTLET NODE,FAN:ONOFF,BASESYS1 FAN-15,Outlet,1
 Non-Parent Node Connection,BASEZNSYS1-16 HEATING COIL OUTLET NODE,FAN:ONOFF,BASESYS1 FAN-16,Inlet,1
 Non-Parent Node Connection,BASEZNSYS1-16 OUTLET NODE,FAN:ONOFF,BASESYS1 FAN-16,Outlet,1
 Non-Parent Node Connection,BASEZNSYS1-17 HEATING COIL OUTLET NODE,FAN:ONOFF,BASESYS1 FAN-17,Inlet,1
 Non-Parent Node Connection,BASEZNSYS1-17 OUTLET NODE,FAN:ONOFF,BASESYS1 FAN-17,Outlet,1
 Non-Parent Node Connection,BASEZNSYS1-18 HEATING COIL OUTLET NODE,FAN:ONOFF,BASESYS1 FAN-18,Inlet,1
 Non-Parent Node Connection,BASEZNSYS1-18 OUTLET NODE,FAN:ONOFF,BASESYS1 FAN-18,Outlet,1
 Non-Parent Node Connection,BASEZNSYS1-19 HEATING COIL OUTLET NODE,FAN:ONOFF,BASESYS1 FAN-19,Inlet,1
 Non-Parent Node Connection,BASEZNSYS1-19 OUTLET NODE,FAN:ONOFF,BASESYS1 FAN-19,Outlet,1
 Non-Parent Node Connection,BASEZNSYS1-20 HEATING COIL OUTLET NODE,FAN:ONOFF,BASESYS1 FAN-20,Inlet,1
 Non-Parent Node Connection,BASEZNSYS1-20 OUTLET NODE,FAN:ONOFF,BASESYS1 FAN-20,Outlet,1
 Non-Parent Node Connection,BASEZNSYS1-21 HEATING COIL OUTLET NODE,FAN:ONOFF,BASESYS1 FAN-21,Inlet,1
 Non-Parent Node Connection,BASEZNSYS1-21 OUTLET NODE,FAN:ONOFF,BASESYS1 FAN-21,Outlet,1
 Non-Parent Node Connection,BASEZNSYS1-22 HEATING COIL OUTLET NODE,FAN:ONOFF,BASESYS1 FAN-22,Inlet,1
 Non-Parent Node Connection,BASEZNSYS1-22 OUTLET NODE,FAN:ONOFF,BASESYS1 FAN-22,Outlet,1
 Non-Parent Node Connection,BASEZNSYS1-3 COOLING COIL OUTLET NODE,COIL:HEATING:FUEL,BASESYS1 COILHTG-3,Inlet,1
 Non-Parent Node Connection,BASEZNSYS1-3 HEATING COIL OUTLET NODE,COIL:HEATING:FUEL,BASESYS1 COILHTG-3,Outlet,1
 Non-Parent Node Connection,BASEZNSYS1 COOLING COIL OUTLET NODE,COIL:HEATING:FUEL,BASESYS1 COILHTG,Inlet,1
 Non-Parent Node Connection,BASEZNSYS1 HEATING COIL OUTLET NODE,COIL:HEATING:FUEL,BASESYS1 COILHTG,Outlet,1
 Non-Parent Node Connection,BASEZNSYS1-2 COOLING COIL OUTLET NODE,COIL:HEATING:FUEL,BASESYS1 COILHTG-2,Inlet,1
 Non-Parent Node Connection,BASEZNSYS1-2 HEATING COIL OUTLET NODE,COIL:HEATING:FUEL,BASESYS1 COILHTG-2,Outlet,1
 Non-Parent Node Connection,BASEZNSYS1-4 COOLING COIL OUTLET NODE,COIL:HEATING:FUEL,BASESYS1 COILHTG-4,Inlet,1
 Non-Parent Node Connection,BASEZNSYS1-4 HEATING COIL OUTLET NODE,COIL:HEATING:FUEL,BASESYS1 COILHTG-4,Outlet,1
 Non-Parent Node Connection,BASEZNSYS1-5 COOLING COIL OUTLET NODE,COIL:HEATING:FUEL,BASESYS1 COILHTG-5,Inlet,1
 Non-Parent Node Connection,BASEZNSYS1-5 HEATING COIL OUTLET NODE,COIL:HEATING:FUEL,BASESYS1 COILHTG-5,Outlet,1
 Non-Parent Node Connection,BASEZNSYS1-6 COOLING COIL OUTLET NODE,COIL:HEATING:FUEL,BASESYS1 COILHTG-6,Inlet,1
 Non-Parent Node Connection,BASEZNSYS1-6 HEATING COIL OUTLET NODE,COIL:HEATING:FUEL,BASESYS1 COILHTG-6,Outlet,1
 Non-Parent Node Connection,BASEZNSYS1-7 COOLING COIL OUTLET NODE,COIL:HEATING:FUEL,BASESYS1 COILHTG-7,Inlet,1
 Non-Parent Node Connection,BASEZNSYS1-7 HEATING COIL OUTLET NODE,COIL:HEATING:FUEL,BASESYS1 COILHTG-7,Outlet,1
 Non-Parent Node Connection,BASEZNSYS1-8 COOLING COIL OUTLET NODE,COIL:HEATING:FUEL,BASESYS1 COILHTG-8,Inlet,1
 Non-Parent Node Connection,BASEZNSYS1-8 HEATING COIL OUTLET NODE,COIL:HEATING:FUEL,BASESYS1 COILHTG-8,Outlet,1
 Non-Parent Node Connection,BASEZNSYS1-9 COOLING COIL OUTLET NODE,COIL:HEATING:FUEL,BASESYS1 COILHTG-9,Inlet,1
 Non-Parent Node Connection,BASEZNSYS1-9 HEATING COIL OUTLET NODE,COIL:HEATING:FUEL,BASESYS1 COILHTG-9,Outlet,1
 Non-Parent Node Connection,BASEZNSYS1-10 COOLING COIL OUTLET NODE,COIL:HEATING:FUEL,BASESYS1 COILHTG-10,Inlet,1
 Non-Parent Node Connection,BASEZNSYS1-10 HEATING COIL OUTLET NODE,COIL:HEATING:FUEL,BASESYS1 COILHTG-10,Outlet,1
 Non-Parent Node Connection,BASEZNSYS1-11 COOLING COIL OUTLET NODE,COIL:HEATING:FUEL,BASESYS1 COILHTG-11,Inlet,1
 Non-Parent Node Connection,BASEZNSYS1-11 HEATING COIL OUTLET NODE,COIL:HEATING:FUEL,BASESYS1 COILHTG-11,Outlet,1
 Non-Parent Node Connection,BASEZNSYS1-14 COOLING COIL OUTLET NODE,COIL:HEATING:FUEL,BASESYS1 COILHTG-14,Inlet,1
 Non-Parent Node Connection,BASEZNSYS1-14 HEATING COIL OUTLET NODE,COIL:HEATING:FUEL,BASESYS1 COILHTG-14,Outlet,1
 Non-Parent Node Connection,BASEZNSYS1-12 COOLING COIL OUTLET NODE,COIL:HEATING:FUEL,BASESYS1 COILHTG-12,Inlet,1
 Non-Parent Node Connection,BASEZNSYS1-12 HEATING COIL OUTLET NODE,COIL:HEATING:FUEL,BASESYS1 COILHTG-12,Outlet,1
 Non-Parent Node Connection,BASEZNSYS1-13 COOLING COIL OUTLET NODE,COIL:HEATING:FUEL,BASESYS1 COILHTG-13,Inlet,1
 Non-Parent Node Connection,BASEZNSYS1-13 HEATING COIL OUTLET NODE,COIL:HEATING:FUEL,BASESYS1 COILHTG-13,Outlet,1
 Non-Parent Node Connection,BASEZNSYS1-15 COOLING COIL OUTLET NODE,COIL:HEATING:FUEL,BASESYS1 COILHTG-15,Inlet,1
 Non-Parent Node Connection,BASEZNSYS1-15 HEATING COIL OUTLET NODE,COIL:HEATING:FUEL,BASESYS1 COILHTG-15,Outlet,1
 Non-Parent Node Connection,BASEZNSYS1-16 COOLING COIL OUTLET NODE,COIL:HEATING:FUEL,BASESYS1 COILHTG-16,Inlet,1
 Non-Parent Node Connection,BASEZNSYS1-16 HEATING COIL OUTLET NODE,COIL:HEATING:FUEL,BASESYS1 COILHTG-16,Outlet,1
 Non-Parent Node Connection,BASEZNSYS1-17 COOLING COIL OUTLET NODE,COIL:HEATING:FUEL,BASESYS1 COILHTG-17,Inlet,1
 Non-Parent Node Connection,BASEZNSYS1-17 HEATING COIL OUTLET NODE,COIL:HEATING:FUEL,BASESYS1 COILHTG-17,Outlet,1
 Non-Parent Node Connection,BASEZNSYS1-18 COOLING COIL OUTLET NODE,COIL:HEATING:FUEL,BASESYS1 COILHTG-18,Inlet,1
 Non-Parent Node Connection,BASEZNSYS1-18 HEATING COIL OUTLET NODE,COIL:HEATING:FUEL,BASESYS1 COILHTG-18,Outlet,1
 Non-Parent Node Connection,BASEZNSYS1-19 COOLING COIL OUTLET NODE,COIL:HEATING:FUEL,BASESYS1 COILHTG-19,Inlet,1
 Non-Parent Node Connection,BASEZNSYS1-19 HEATING COIL OUTLET NODE,COIL:HEATING:FUEL,BASESYS1 COILHTG-19,Outlet,1
 Non-Parent Node Connection,BASEZNSYS1-20 COOLING COIL OUTLET NODE,COIL:HEATING:FUEL,BASESYS1 COILHTG-20,Inlet,1
 Non-Parent Node Connection,BASEZNSYS1-20 HEATING COIL OUTLET NODE,COIL:HEATING:FUEL,BASESYS1 COILHTG-20,Outlet,1
 Non-Parent Node Connection,BASEZNSYS1-21 COOLING COIL OUTLET NODE,COIL:HEATING:FUEL,BASESYS1 COILHTG-21,Inlet,1
 Non-Parent Node Connection,BASEZNSYS1-21 HEATING COIL OUTLET NODE,COIL:HEATING:FUEL,BASESYS1 COILHTG-21,Outlet,1
 Non-Parent Node Connection,BASEZNSYS1-22 COOLING COIL OUTLET NODE,COIL:HEATING:FUEL,BASESYS1 COILHTG-22,Inlet,1
 Non-Parent Node Connection,BASEZNSYS1-22 HEATING COIL OUTLET NODE,COIL:HEATING:FUEL,BASESYS1 COILHTG-22,Outlet,1
 Non-Parent Node Connection,BASEZNSYS1-3 INLET NODE,COIL:COOLING:DX:SINGLESPEED,BASESYS1 COILCLG-3,Inlet,1
 Non-Parent Node Connection,BASEZNSYS1-3 COOLING COIL OUTLET NODE,COIL:COOLING:DX:SINGLESPEED,BASESYS1 COILCLG-3,Outlet,1
 Non-Parent Node Connection,BASEZNSYS1 INLET NODE,COIL:COOLING:DX:SINGLESPEED,BASESYS1 COILCLG,Inlet,1
 Non-Parent Node Connection,BASEZNSYS1 COOLING COIL OUTLET NODE,COIL:COOLING:DX:SINGLESPEED,BASESYS1 COILCLG,Outlet,1
 Non-Parent Node Connection,BASEZNSYS1-2 INLET NODE,COIL:COOLING:DX:SINGLESPEED,BASESYS1 COILCLG-2,Inlet,1
 Non-Parent Node Connection,BASEZNSYS1-2 COOLING COIL OUTLET NODE,COIL:COOLING:DX:SINGLESPEED,BASESYS1 COILCLG-2,Outlet,1
 Non-Parent Node Connection,BASEZNSYS1-4 INLET NODE,COIL:COOLING:DX:SINGLESPEED,BASESYS1 COILCLG-4,Inlet,1
 Non-Parent Node Connection,BASEZNSYS1-4 COOLING COIL OUTLET NODE,COIL:COOLING:DX:SINGLESPEED,BASESYS1 COILCLG-4,Outlet,1
 Non-Parent Node Connection,BASEZNSYS1-5 INLET NODE,COIL:COOLING:DX:SINGLESPEED,BASESYS1 COILCLG-5,Inlet,1
 Non-Parent Node Connection,BASEZNSYS1-5 COOLING COIL OUTLET NODE,COIL:COOLING:DX:SINGLESPEED,BASESYS1 COILCLG-5,Outlet,1
 Non-Parent Node Connection,BASEZNSYS1-6 INLET NODE,COIL:COOLING:DX:SINGLESPEED,BASESYS1 COILCLG-6,Inlet,1
 Non-Parent Node Connection,BASEZNSYS1-6 COOLING COIL OUTLET NODE,COIL:COOLING:DX:SINGLESPEED,BASESYS1 COILCLG-6,Outlet,1
 Non-Parent Node Connection,BASEZNSYS1-7 INLET NODE,COIL:COOLING:DX:SINGLESPEED,BASESYS1 COILCLG-7,Inlet,1
 Non-Parent Node Connection,BASEZNSYS1-7 COOLING COIL OUTLET NODE,COIL:COOLING:DX:SINGLESPEED,BASESYS1 COILCLG-7,Outlet,1
 Non-Parent Node Connection,BASEZNSYS1-8 INLET NODE,COIL:COOLING:DX:SINGLESPEED,BASESYS1 COILCLG-8,Inlet,1
 Non-Parent Node Connection,BASEZNSYS1-8 COOLING COIL OUTLET NODE,COIL:COOLING:DX:SINGLESPEED,BASESYS1 COILCLG-8,Outlet,1
 Non-Parent Node Connection,BASEZNSYS1-9 INLET NODE,COIL:COOLING:DX:SINGLESPEED,BASESYS1 COILCLG-9,Inlet,1
 Non-Parent Node Connection,BASEZNSYS1-9 COOLING COIL OUTLET NODE,COIL:COOLING:DX:SINGLESPEED,BASESYS1 COILCLG-9,Outlet,1
 Non-Parent Node Connection,BASEZNSYS1-10 INLET NODE,COIL:COOLING:DX:SINGLESPEED,BASESYS1 COILCLG-10,Inlet,1
 Non-Parent Node Connection,BASEZNSYS1-10 COOLING COIL OUTLET NODE,COIL:COOLING:DX:SINGLESPEED,BASESYS1 COILCLG-10,Outlet,1
 Non-Parent Node Connection,BASEZNSYS1-11 INLET NODE,COIL:COOLING:DX:SINGLESPEED,BASESYS1 COILCLG-11,Inlet,1
 Non-Parent Node Connection,BASEZNSYS1-11 COOLING COIL OUTLET NODE,COIL:COOLING:DX:SINGLESPEED,BASESYS1 COILCLG-11,Outlet,1
 Non-Parent Node Connection,BASEZNSYS1-14 INLET NODE,COIL:COOLING:DX:SINGLESPEED,BASESYS1 COILCLG-14,Inlet,1
 Non-Parent Node Connection,BASEZNSYS1-14 COOLING COIL OUTLET NODE,COIL:COOLING:DX:SINGLESPEED,BASESYS1 COILCLG-14,Outlet,1
 Non-Parent Node Connection,BASEZNSYS1-12 INLET NODE,COIL:COOLING:DX:SINGLESPEED,BASESYS1 COILCLG-12,Inlet,1
 Non-Parent Node Connection,BASEZNSYS1-12 COOLING COIL OUTLET NODE,COIL:COOLING:DX:SINGLESPEED,BASESYS1 COILCLG-12,Outlet,1
 Non-Parent Node Connection,BASEZNSYS1-13 INLET NODE,COIL:COOLING:DX:SINGLESPEED,BASESYS1 COILCLG-13,Inlet,1
 Non-Parent Node Connection,BASEZNSYS1-13 COOLING COIL OUTLET NODE,COIL:COOLING:DX:SINGLESPEED,BASESYS1 COILCLG-13,Outlet,1
 Non-Parent Node Connection,BASEZNSYS1-15 INLET NODE,COIL:COOLING:DX:SINGLESPEED,BASESYS1 COILCLG-15,Inlet,1
 Non-Parent Node Connection,BASEZNSYS1-15 COOLING COIL OUTLET NODE,COIL:COOLING:DX:SINGLESPEED,BASESYS1 COILCLG-15,Outlet,1
 Non-Parent Node Connection,BASEZNSYS1-16 INLET NODE,COIL:COOLING:DX:SINGLESPEED,BASESYS1 COILCLG-16,Inlet,1
 Non-Parent Node Connection,BASEZNSYS1-16 COOLING COIL OUTLET NODE,COIL:COOLING:DX:SINGLESPEED,BASESYS1 COILCLG-16,Outlet,1
 Non-Parent Node Connection,BASEZNSYS1-17 INLET NODE,COIL:COOLING:DX:SINGLESPEED,BASESYS1 COILCLG-17,Inlet,1
 Non-Parent Node Connection,BASEZNSYS1-17 COOLING COIL OUTLET NODE,COIL:COOLING:DX:SINGLESPEED,BASESYS1 COILCLG-17,Outlet,1
 Non-Parent Node Connection,BASEZNSYS1-18 INLET NODE,COIL:COOLING:DX:SINGLESPEED,BASESYS1 COILCLG-18,Inlet,1
 Non-Parent Node Connection,BASEZNSYS1-18 COOLING COIL OUTLET NODE,COIL:COOLING:DX:SINGLESPEED,BASESYS1 COILCLG-18,Outlet,1
 Non-Parent Node Connection,BASEZNSYS1-19 INLET NODE,COIL:COOLING:DX:SINGLESPEED,BASESYS1 COILCLG-19,Inlet,1
 Non-Parent Node Connection,BASEZNSYS1-19 COOLING COIL OUTLET NODE,COIL:COOLING:DX:SINGLESPEED,BASESYS1 COILCLG-19,Outlet,1
 Non-Parent Node Connection,BASEZNSYS1-20 INLET NODE,COIL:COOLING:DX:SINGLESPEED,BASESYS1 COILCLG-20,Inlet,1
 Non-Parent Node Connection,BASEZNSYS1-20 COOLING COIL OUTLET NODE,COIL:COOLING:DX:SINGLESPEED,BASESYS1 COILCLG-20,Outlet,1
 Non-Parent Node Connection,BASEZNSYS1-21 INLET NODE,COIL:COOLING:DX:SINGLESPEED,BASESYS1 COILCLG-21,Inlet,1
 Non-Parent Node Connection,BASEZNSYS1-21 COOLING COIL OUTLET NODE,COIL:COOLING:DX:SINGLESPEED,BASESYS1 COILCLG-21,Outlet,1
 Non-Parent Node Connection,BASEZNSYS1-22 INLET NODE,COIL:COOLING:DX:SINGLESPEED,BASESYS1 COILCLG-22,Inlet,1
 Non-Parent Node Connection,BASEZNSYS1-22 COOLING COIL OUTLET NODE,COIL:COOLING:DX:SINGLESPEED,BASESYS1 COILCLG-22,Outlet,1
 Non-Parent Node Connection,BASESYS5 OACTRL OA SYSTEM MIXED AIR NODE,COIL:COOLING:DX:TWOSPEED,BASESYS5 COILCLG,Inlet,1
 Non-Parent Node Connection,BASESYS5 COILCLG OUTLET NODE,COIL:COOLING:DX:TWOSPEED,BASESYS5 COILCLG,Outlet,1
 Non-Parent Node Connection,BASESYS5 OACTRL-2 OA SYSTEM MIXED AIR NODE,COIL:COOLING:DX:TWOSPEED,BASESYS5 COILCLG-2,Inlet,1
 Non-Parent Node Connection,BASESYS5 COILCLG-2 OUTLET NODE,COIL:COOLING:DX:TWOSPEED,BASESYS5 COILCLG-2,Outlet,1
 Non-Parent Node Connection,BASESYS5 OACTRL-3 OA SYSTEM MIXED AIR NODE,COIL:COOLING:DX:TWOSPEED,BASESYS5 COILCLG-3,Inlet,1
 Non-Parent Node Connection,BASESYS5 COILCLG-3 OUTLET NODE,COIL:COOLING:DX:TWOSPEED,BASESYS5 COILCLG-3,Outlet,1
 Non-Parent Node Connection,BASEAIRSYS5 ZONE MIXER OUTLET NODE,AIRLOOPHVAC:ZONEMIXER,BASEAIRSYS5 ZONE MIXER,Outlet,1
 Non-Parent Node Connection,THERMAL ZONE: F1 BUSINESS CENTER RETURN AIR NODE,AIRLOOPHVAC:ZONEMIXER,BASEAIRSYS5 ZONE MIXER,Inlet,1
 Non-Parent Node Connection,THERMAL ZONE: F1 CORRIDOR RETURN AIR NODE,AIRLOOPHVAC:ZONEMIXER,BASEAIRSYS5 ZONE MIXER,Inlet,1
 Non-Parent Node Connection,THERMAL ZONE: F1 LOUNGE RETURN AIR NODE,AIRLOOPHVAC:ZONEMIXER,BASEAIRSYS5 ZONE MIXER,Inlet,1
 Non-Parent Node Connection,THERMAL ZONE: F1 FITNESS CENTER RETURN AIR NODE,AIRLOOPHVAC:ZONEMIXER,BASEAIRSYS5 ZONE MIXER,Inlet,1
 Non-Parent Node Connection,THERMAL ZONE: F1 LEASING OFFICE RETURN AIR NODE,AIRLOOPHVAC:ZONEMIXER,BASEAIRSYS5 ZONE MIXER,Inlet,1
 Non-Parent Node Connection,THERMAL ZONE: F1 MECHANICAL ROOM RETURN AIR NODE,AIRLOOPHVAC:ZONEMIXER,BASEAIRSYS5 ZONE MIXER,Inlet,1
 Non-Parent Node Connection,THERMAL ZONE: F1 RETAIL N-NW RETURN AIR NODE,AIRLOOPHVAC:ZONEMIXER,BASEAIRSYS5 ZONE MIXER,Inlet,1
 Non-Parent Node Connection,THERMAL ZONE: F1 RETAIL NE RETURN AIR NODE,AIRLOOPHVAC:ZONEMIXER,BASEAIRSYS5 ZONE MIXER,Inlet,1
 Non-Parent Node Connection,THERMAL ZONE: F1 RETAIL SE RETURN AIR NODE,AIRLOOPHVAC:ZONEMIXER,BASEAIRSYS5 ZONE MIXER,Inlet,1
 Non-Parent Node Connection,THERMAL ZONE: F1 RETAIL SW RETURN AIR NODE,AIRLOOPHVAC:ZONEMIXER,BASEAIRSYS5 ZONE MIXER,Inlet,1
 Non-Parent Node Connection,BASEAIRSYS5-2 ZONE MIXER OUTLET NODE,AIRLOOPHVAC:ZONEMIXER,BASEAIRSYS5-2 ZONE MIXER,Outlet,1
 Non-Parent Node Connection,THERMAL ZONE: F2-4 CORRIDOR RETURN AIR NODE,AIRLOOPHVAC:ZONEMIXER,BASEAIRSYS5-2 ZONE MIXER,Inlet,1
 Non-Parent Node Connection,BASEAIRSYS5-3 ZONE MIXER OUTLET NODE,AIRLOOPHVAC:ZONEMIXER,BASEAIRSYS5-3 ZONE MIXER,Outlet,1
 Non-Parent Node Connection,THERMAL ZONE: F5 CORRIDOR RETURN AIR NODE,AIRLOOPHVAC:ZONEMIXER,BASEAIRSYS5-3 ZONE MIXER,Inlet,1
 Non-Parent Node Connection,BASESYS5 OACTRL OA SYSTEM MIXED AIR NODE,OUTDOORAIR:MIXER,BASESYS5 OACTRL OA SYSTEM OUTDOOR AIR MIXER,Outlet,1
 Non-Parent Node Connection,BASESYS5 OACTRL OA SYSTEM OA NODE,OUTDOORAIR:MIXER,BASESYS5 OACTRL OA SYSTEM OUTDOOR AIR MIXER,Inlet,1
 Non-Parent Node Connection,BASESYS5 OACTRL OA SYSTEM RELIEF NODE,OUTDOORAIR:MIXER,BASESYS5 OACTRL OA SYSTEM OUTDOOR AIR MIXER,ReliefAir,1
 Non-Parent Node Connection,BASEAIRSYS5 SUPPLY SIDE (RETURN AIR) INLET NODE,OUTDOORAIR:MIXER,BASESYS5 OACTRL OA SYSTEM OUTDOOR AIR MIXER,Inlet,1
 Non-Parent Node Connection,BASESYS5 OACTRL-2 OA SYSTEM MIXED AIR NODE,OUTDOORAIR:MIXER,BASESYS5 OACTRL-2 OA SYSTEM OUTDOOR AIR MIXER,Outlet,1
 Non-Parent Node Connection,BASESYS5 OACTRL-2 OA SYSTEM OA NODE,OUTDOORAIR:MIXER,BASESYS5 OACTRL-2 OA SYSTEM OUTDOOR AIR MIXER,Inlet,1
 Non-Parent Node Connection,BASESYS5 OACTRL-2 OA SYSTEM RELIEF NODE,OUTDOORAIR:MIXER,BASESYS5 OACTRL-2 OA SYSTEM OUTDOOR AIR MIXER,ReliefAir,1
 Non-Parent Node Connection,BASEAIRSYS5-2 SUPPLY SIDE (RETURN AIR) INLET NODE,OUTDOORAIR:MIXER,BASESYS5 OACTRL-2 OA SYSTEM OUTDOOR AIR MIXER,Inlet,1
 Non-Parent Node Connection,BASESYS5 OACTRL-3 OA SYSTEM MIXED AIR NODE,OUTDOORAIR:MIXER,BASESYS5 OACTRL-3 OA SYSTEM OUTDOOR AIR MIXER,Outlet,1
 Non-Parent Node Connection,BASESYS5 OACTRL-3 OA SYSTEM OA NODE,OUTDOORAIR:MIXER,BASESYS5 OACTRL-3 OA SYSTEM OUTDOOR AIR MIXER,Inlet,1
 Non-Parent Node Connection,BASESYS5 OACTRL-3 OA SYSTEM RELIEF NODE,OUTDOORAIR:MIXER,BASESYS5 OACTRL-3 OA SYSTEM OUTDOOR AIR MIXER,ReliefAir,1
 Non-Parent Node Connection,BASEAIRSYS5-3 SUPPLY SIDE (RETURN AIR) INLET NODE,OUTDOORAIR:MIXER,BASESYS5 OACTRL-3 OA SYSTEM OUTDOOR AIR MIXER,Inlet,1
 Non-Parent Node Connection,BASESYS5 OACTRL OA SYSTEM MIXED AIR NODE,CONTROLLER:OUTDOORAIR,BASESYS5 OACTRL,Sensor,1
 Non-Parent Node Connection,BASESYS5 OACTRL OA SYSTEM OA NODE,CONTROLLER:OUTDOORAIR,BASESYS5 OACTRL,Actuator,1
 Non-Parent Node Connection,BASESYS5 OACTRL OA SYSTEM RELIEF NODE,CONTROLLER:OUTDOORAIR,BASESYS5 OACTRL,Actuator,1
 Non-Parent Node Connection,BASEAIRSYS5 SUPPLY SIDE (RETURN AIR) INLET NODE,CONTROLLER:OUTDOORAIR,BASESYS5 OACTRL,Sensor,1
 Non-Parent Node Connection,BASESYS5 OACTRL-2 OA SYSTEM MIXED AIR NODE,CONTROLLER:OUTDOORAIR,BASESYS5 OACTRL-2,Sensor,1
 Non-Parent Node Connection,BASESYS5 OACTRL-2 OA SYSTEM OA NODE,CONTROLLER:OUTDOORAIR,BASESYS5 OACTRL-2,Actuator,1
 Non-Parent Node Connection,BASESYS5 OACTRL-2 OA SYSTEM RELIEF NODE,CONTROLLER:OUTDOORAIR,BASESYS5 OACTRL-2,Actuator,1
 Non-Parent Node Connection,BASEAIRSYS5-2 SUPPLY SIDE (RETURN AIR) INLET NODE,CONTROLLER:OUTDOORAIR,BASESYS5 OACTRL-2,Sensor,1
 Non-Parent Node Connection,BASESYS5 OACTRL-3 OA SYSTEM MIXED AIR NODE,CONTROLLER:OUTDOORAIR,BASESYS5 OACTRL-3,Sensor,1
 Non-Parent Node Connection,BASESYS5 OACTRL-3 OA SYSTEM OA NODE,CONTROLLER:OUTDOORAIR,BASESYS5 OACTRL-3,Actuator,1
 Non-Parent Node Connection,BASESYS5 OACTRL-3 OA SYSTEM RELIEF NODE,CONTROLLER:OUTDOORAIR,BASESYS5 OACTRL-3,Actuator,1
 Non-Parent Node Connection,BASEAIRSYS5-3 SUPPLY SIDE (RETURN AIR) INLET NODE,CONTROLLER:OUTDOORAIR,BASESYS5 OACTRL-3,Sensor,1
 Non-Parent Node Connection,BASE HW PUMP OUTLET NODE,BOILER:HOTWATER,BASE BLR,Inlet,1
 Non-Parent Node Connection,BASE BLR OUTLET NODE,BOILER:HOTWATER,BASE BLR,Outlet,1
 Non-Parent Node Connection,BASE HW PUMP-2 OUTLET NODE,BOILER:HOTWATER,BASE BLR-2,Inlet,1
 Non-Parent Node Connection,BASE BLR-2 OUTLET NODE,BOILER:HOTWATER,BASE BLR-2,Outlet,1
 Non-Parent Node Connection,BASEHWSYSTEM SUPPLY SPLITTER OUTLET NODE 1,PUMP:VARIABLESPEED,BASE HW PUMP,Inlet,1
 Non-Parent Node Connection,BASE HW PUMP OUTLET NODE,PUMP:VARIABLESPEED,BASE HW PUMP,Outlet,1
 Non-Parent Node Connection,BASEHWSYSTEM SUPPLY SPLITTER OUTLET NODE 2,PUMP:VARIABLESPEED,BASE HW PUMP-2,Inlet,1
 Non-Parent Node Connection,BASE HW PUMP-2 OUTLET NODE,PUMP:VARIABLESPEED,BASE HW PUMP-2,Outlet,1
 Non-Parent Node Connection,NONRESBASEELECSHWSYSTEM SUPPLY INLET NODE,PUMP:VARIABLESPEED,{C73C7BEB-718F-477A-AC21-8051619F5EC2},Inlet,1
 Non-Parent Node Connection,{C73C7BEB-718F-477A-AC21-8051619F5EC2} OUTLET NODE,PUMP:VARIABLESPEED,{C73C7BEB-718F-477A-AC21-8051619F5EC2},Outlet,1
 Non-Parent Node Connection,NONRESBASEGASSHWSYSTEM SUPPLY INLET NODE,PUMP:VARIABLESPEED,{BDF7A154-F49A-4214-B3F6-CBFA2D9831EF},Inlet,1
 Non-Parent Node Connection,{BDF7A154-F49A-4214-B3F6-CBFA2D9831EF} OUTLET NODE,PUMP:VARIABLESPEED,{BDF7A154-F49A-4214-B3F6-CBFA2D9831EF},Outlet,1
