Program Version,EnergyPlus, Version 9.0.1-bb7ca4f0da, YMD=2019.12.18 16:13,
   ************* Beginning Zone Sizing Calculations
   ** Warning ** ProcessScheduleInput: Schedule:Day:Interval="{06524F65-4D53-464B-8D29-4ECE826B3F42}", Blank Schedule Type Limits Name input -- will not be validated.
   ** Warning ** ProcessScheduleInput: Schedule:Day:Interval="{14A03FA9-4686-4DDA-926C-D807D82D7E3D}", Blank Schedule Type Limits Name input -- will not be validated.
   ** Warning ** ProcessScheduleInput: Schedule:Day:Interval="{14B5BB24-6B5B-44C6-A31A-C561D7BB9EF4}", Blank Schedule Type Limits Name input -- will not be validated.
   ** Warning ** ProcessScheduleInput: Schedule:Day:Interval="{29FBD59A-BF05-4AA0-AB4D-59E058EA6873}", Blank Schedule Type Limits Name input -- will not be validated.
   ** Warning ** ProcessScheduleInput: Schedule:Day:Interval="{32E7435C-40C3-4979-BBC0-634EBEEBA762}", Blank Schedule Type Limits Name input -- will not be validated.
   ** Warning ** ProcessScheduleInput: Schedule:Day:Interval="{41D3C052-F958-47A3-9A56-7611350096B9}", Blank Schedule Type Limits Name input -- will not be validated.
   ** Warning ** ProcessScheduleInput: Schedule:Day:Interval="{5C2A1B98-0BE9-4868-BA63-0D01304C12AE}", Blank Schedule Type Limits Name input -- will not be validated.
   ** Warning ** ProcessScheduleInput: Schedule:Day:Interval="{5EF133BE-9520-49D1-8891-B971CCDC33AF}", Blank Schedule Type Limits Name input -- will not be validated.
   ** Warning ** ProcessScheduleInput: Schedule:Day:Interval="{5F1F694B-4D0C-422F-A872-240DB3D72223}", Blank Schedule Type Limits Name input -- will not be validated.
   ** Warning ** ProcessScheduleInput: Schedule:Day:Interval="{62F50E56-FF2F-4958-B067-85234AAE6FB0}", Blank Schedule Type Limits Name input -- will not be validated.
   ** Warning ** ProcessScheduleInput: Schedule:Day:Interval="{7B71D50F-B753-4EED-A4B6-287B52C1C430}", Blank Schedule Type Limits Name input -- will not be validated.
   ** Warning ** ProcessScheduleInput: Schedule:Day:Interval="{7FA53155-E8D5-4CBC-9A4A-19C6C56EF5F3}", Blank Schedule Type Limits Name input -- will not be validated.
   ** Warning ** ProcessScheduleInput: Schedule:Day:Interval="{7FCEFCAF-2246-405E-87EB-DEA8A2FF0320}", Blank Schedule Type Limits Name input -- will not be validated.
   ** Warning ** ProcessScheduleInput: Schedule:Day:Interval="{84B2F8C7-2B17-4A49-ABB5-939EE9205F09}", Blank Schedule Type Limits Name input -- will not be validated.
   ** Warning ** ProcessScheduleInput: Schedule:Day:Interval="{94F0D192-C830-410A-A233-E6C1206281C8}", Blank Schedule Type Limits Name input -- will not be validated.
   ** Warning ** ProcessScheduleInput: Schedule:Day:Interval="{9556B7C5-C84C-457B-83A3-E0377102D089}", Blank Schedule Type Limits Name input -- will not be validated.
   ** Warning ** ProcessScheduleInput: Schedule:Day:Interval="{9AA9A5C9-1025-48ED-81DD-D41982C2DE4A}", Blank Schedule Type Limits Name input -- will not be validated.
   ** Warning ** ProcessScheduleInput: Schedule:Day:Interval="{9E5AFA05-8065-4D4D-BE64-7A37133BD3E2}", Blank Schedule Type Limits Name input -- will not be validated.
   ** Warning ** ProcessScheduleInput: Schedule:Day:Interval="{B52C3C09-53B5-4E2E-BF82-7AD22FDA1684}", Blank Schedule Type Limits Name input -- will not be validated.
   ** Warning ** ProcessScheduleInput: Schedule:Day:Interval="{B84BC98A-0394-4F1F-9DB0-C846D3B13F75}", Blank Schedule Type Limits Name input -- will not be validated.
   ** Warning ** ProcessScheduleInput: Schedule:Day:Interval="{CF900504-188E-4E28-A279-FE2F22847D9B}", Blank Schedule Type Limits Name input -- will not be validated.
   ** Warning ** ProcessScheduleInput: Schedule:Day:Interval="{DC3A8F6D-4D4E-40AD-9F13-4885874D1A58}", Blank Schedule Type Limits Name input -- will not be validated.
   ** Warning ** ProcessScheduleInput: Schedule:Day:Interval="{DD40717C-7384-442E-9CD3-051F5036C65F}", Blank Schedule Type Limits Name input -- will not be validated.
   ** Warning ** ProcessScheduleInput: Schedule:Day:Interval="{DE670318-A2E5-487B-921E-D06D1E036ABA}", Blank Schedule Type Limits Name input -- will not be validated.
   ** Warning ** ProcessScheduleInput: Schedule:Day:Interval="{E0557944-BB7A-4B29-B8C9-A19458C2F8C5}", Blank Schedule Type Limits Name input -- will not be validated.
   ** Warning ** ProcessScheduleInput: Schedule:Day:Interval="{E7BA0CC3-C0A7-48D9-A874-537B183FAE82}", Blank Schedule Type Limits Name input -- will not be validated.
   ** Warning ** ProcessScheduleInput: Schedule:Day:Interval="{E85839CD-88A1-4696-8F9D-AE1ABB9F6717}", Blank Schedule Type Limits Name input -- will not be validated.
   ** Warning ** ProcessScheduleInput: Schedule:Day:Interval="{EEA6136F-3260-4FC0-B16B-EBA2ABCA1130}", Blank Schedule Type Limits Name input -- will not be validated.
   ** Warning ** ProcessScheduleInput: Schedule:Year="F1 BUSINESS CENTER TARGET SHW TEMP", Blank Schedule Type Limits Name input -- will not be validated.
   ** Warning ** ProcessScheduleInput: Schedule:Year="F1 ELEVATOR CORE TARGET SHW TEMP", Blank Schedule Type Limits Name input -- will not be validated.
   ** Warning ** ProcessScheduleInput: Schedule:Year="F1 ELEVATOR N TARGET SHW TEMP", Blank Schedule Type Limits Name input -- will not be validated.
   ** Warning ** ProcessScheduleInput: Schedule:Year="F1 ELEVATOR S TARGET SHW TEMP", Blank Schedule Type Limits Name input -- will not be validated.
   ** Warning ** ProcessScheduleInput: Schedule:Year="F1 FITNESS CENTER TARGET SHW TEMP", Blank Schedule Type Limits Name input -- will not be validated.
   ** Warning ** ProcessScheduleInput: Schedule:Year="F1 LEASING OFFICE TARGET SHW TEMP", Blank Schedule Type Limits Name input -- will not be validated.
   ** Warning ** ProcessScheduleInput: Schedule:Year="F1 LOUNGE TARGET SHW TEMP", Blank Schedule Type Limits Name input -- will not be validated.
   ** Warning ** ProcessScheduleInput: Schedule:Year="F1 MECHANICAL ROOM TARGET SHW TEMP", Blank Schedule Type Limits Name input -- will not be validated.
   ** Warning ** ProcessScheduleInput: Schedule:Year="F1 RETAIL N CORE TARGET SHW TEMP", Blank Schedule Type Limits Name input -- will not be validated.
   ** Warning ** ProcessScheduleInput: Schedule:Year="F1 RETAIL NE CORE TARGET SHW TEMP", Blank Schedule Type Limits Name input -- will not be validated.
   ** Warning ** ProcessScheduleInput: Schedule:Year="F1 RETAIL NE INNER TARGET SHW TEMP", Blank Schedule Type Limits Name input -- will not be validated.
   ** Warning ** ProcessScheduleInput: Schedule:Year="F1 RETAIL NE OUTER TARGET SHW TEMP", Blank Schedule Type Limits Name input -- will not be validated.
   ** Warning ** ProcessScheduleInput: Schedule:Year="F1 RETAIL NW INNER CORE TARGET SHW TEMP", Blank Schedule Type Limits Name input -- will not be validated.
   ** Warning ** ProcessScheduleInput: Schedule:Year="F1 RETAIL NW OUTER CORE TARGET SHW TEMP", Blank Schedule Type Limits Name input -- will not be validated.
   ** Warning ** ProcessScheduleInput: Schedule:Year="F1 RETAIL NW OUTER TARGET SHW TEMP", Blank Schedule Type Limits Name input -- will not be validated.
   ** Warning ** ProcessScheduleInput: Schedule:Year="F1 RETAIL SE BOTTOM TARGET SHW TEMP", Blank Schedule Type Limits Name input -- will not be validated.
   ** Warning ** ProcessScheduleInput: Schedule:Year="F1 RETAIL SE TOP TARGET SHW TEMP", Blank Schedule Type Limits Name input -- will not be validated.
   ** Warning ** ProcessScheduleInput: Schedule:Year="F1 RETAIL SW BOTTOM TARGET SHW TEMP", Blank Schedule Type Limits Name input -- will not be validated.
   ** Warning ** ProcessScheduleInput: Schedule:Year="F1 RETAIL SW CORE TARGET SHW TEMP", Blank Schedule Type Limits Name input -- will not be validated.
   ** Warning ** ProcessScheduleInput: Schedule:Year="F1 RETAIL SW TOP TARGET SHW TEMP", Blank Schedule Type Limits Name input -- will not be validated.
   ** Warning ** ProcessScheduleInput: Schedule:Year="F2-4 ELEVATOR CORE TARGET SHW TEMP", Blank Schedule Type Limits Name input -- will not be validated.
   ** Warning ** ProcessScheduleInput: Schedule:Year="F2-4 ELEVATOR N TARGET SHW TEMP", Blank Schedule Type Limits Name input -- will not be validated.
   ** Warning ** ProcessScheduleInput: Schedule:Year="F2-4 ELEVATOR S TARGET SHW TEMP", Blank Schedule Type Limits Name input -- will not be validated.
   ** Warning ** ProcessScheduleInput: Schedule:Year="F2-4 LAUNDRY TARGET SHW TEMP", Blank Schedule Type Limits Name input -- will not be validated.
   ** Warning ** ProcessScheduleInput: Schedule:Year="F5 ELEVATOR CORE TARGET SHW TEMP", Blank Schedule Type Limits Name input -- will not be validated.
   ** Warning ** ProcessScheduleInput: Schedule:Year="F5 ELEVATOR N TARGET SHW TEMP", Blank Schedule Type Limits Name input -- will not be validated.
   ** Warning ** ProcessScheduleInput: Schedule:Year="F5 ELEVATOR S TARGET SHW TEMP", Blank Schedule Type Limits Name input -- will not be validated.
   ** Warning ** ProcessScheduleInput: Schedule:Year="F5 LAUNDRY TARGET SHW TEMP", Blank Schedule Type Limits Name input -- will not be validated.
   ** Warning ** ProcessScheduleInput: Schedule:Constant="ALWAYS OFF DISCRETE", Blank Schedule Type Limits Name input -- will not be validated.
   ** Warning ** ProcessScheduleInput: Schedule:Constant="ALWAYS ON CONTINUOUS", Blank Schedule Type Limits Name input -- will not be validated.
   ** Warning ** CalculateZoneVolume: 22 zones are not fully enclosed. For more details use:  Output:Diagnostics,DisplayExtrawarnings; 
   ** Warning ** GetDaylightingControls: Fraction of Zone controlled by the Daylighting reference points is < 1.0.
   **   ~~~   ** ..discovered in "Daylighting:Controls" for Zone="THERMAL ZONE: F1 CORRIDOR", only 0.28 of the zone is controlled.
   ** Warning ** GetDaylightingControls: Fraction of Zone controlled by the Daylighting reference points is < 1.0.
   **   ~~~   ** ..discovered in "Daylighting:Controls" for Zone="THERMAL ZONE: F1 RETAIL N-NW", only 0.10 of the zone is controlled.
   ** Warning ** GetDaylightingControls: Fraction of Zone controlled by the Daylighting reference points is < 1.0.
   **   ~~~   ** ..discovered in "Daylighting:Controls" for Zone="THERMAL ZONE: F1 RETAIL NE", only 0.14 of the zone is controlled.
   ** Warning ** GetDaylightingControls: Fraction of Zone controlled by the Daylighting reference points is < 1.0.
   **   ~~~   ** ..discovered in "Daylighting:Controls" for Zone="THERMAL ZONE: F1 RETAIL SE", only 0.40 of the zone is controlled.
   ** Warning ** GetDaylightingControls: Fraction of Zone controlled by the Daylighting reference points is < 1.0.
   **   ~~~   ** ..discovered in "Daylighting:Controls" for Zone="THERMAL ZONE: F1 RETAIL SW", only 0.36 of the zone is controlled.
   ** Warning ** GetSimpleAirModelInputs: ZoneInfiltration:DesignFlowRate="F1 MECHANICAL ROOM SPACE INFILTRATION DESIGN FLOW RATE 1", Design Flow Rate Calculation Method specifies Flow per Exterior Surface Area, but Exterior Wall Area = 0.  0 Infiltration will result.
   ** Warning ** GetSimpleAirModelInputs: ZoneInfiltration:DesignFlowRate="PARKING GARAGE SPACE INFILTRATION DESIGN FLOW RATE 1", Design Flow Rate Calculation Method specifies Flow per Exterior Surface Area, but Exterior Wall Area = 0.  0 Infiltration will result.
   ** Warning ** SetUpZoneSizingArrays: Requested Sizing for Zone="THERMAL ZONE: PARKING GARAGE", Zone has no thermostat (ref: ZoneControl:Thermostat, et al)
   ** Warning ** Calculated design cooling load for zone=THERMAL ZONE: PARKING GARAGE is zero.
   **   ~~~   ** Check Sizing:Zone and ZoneControl:Thermostat inputs.
   ** Warning ** Calculated design heating load for zone=THERMAL ZONE: PARKING GARAGE is zero.
   **   ~~~   ** Check Sizing:Zone and ZoneControl:Thermostat inputs.
   ************* Beginning System Sizing Calculations
   ** Warning ** Since Zone Minimum Air Flow Input Method = FIXEDFLOWRATE, input for Constant Minimum Air Flow Fraction will be ignored.
   **   ~~~   ** Occurs in AirTerminal:SingleDuct:VAV:Reheat = BASEVAV TRMLUNIT
   ** Warning ** Since Damper Heating Action = REVERSE, input for Maximum Flow Fraction During Reheat will be ignored.
   **   ~~~   ** Occurs in AirTerminal:SingleDuct:VAV:Reheat = BASEVAV TRMLUNIT
   ** Warning ** Since Zone Minimum Air Flow Input Method = FIXEDFLOWRATE, input for Constant Minimum Air Flow Fraction will be ignored.
   **   ~~~   ** Occurs in AirTerminal:SingleDuct:VAV:Reheat = BASEVAV TRMLUNIT-2
   ** Warning ** Since Damper Heating Action = REVERSE, input for Maximum Flow Fraction During Reheat will be ignored.
   **   ~~~   ** Occurs in AirTerminal:SingleDuct:VAV:Reheat = BASEVAV TRMLUNIT-2
   ** Warning ** Since Zone Minimum Air Flow Input Method = FIXEDFLOWRATE, input for Constant Minimum Air Flow Fraction will be ignored.
   **   ~~~   ** Occurs in AirTerminal:SingleDuct:VAV:Reheat = BASEVAV TRMLUNIT-4
   ** Warning ** Since Damper Heating Action = REVERSE, input for Maximum Flow Fraction During Reheat will be ignored.
   **   ~~~   ** Occurs in AirTerminal:SingleDuct:VAV:Reheat = BASEVAV TRMLUNIT-4
   ** Warning ** Since Zone Minimum Air Flow Input Method = FIXEDFLOWRATE, input for Constant Minimum Air Flow Fraction will be ignored.
   **   ~~~   ** Occurs in AirTerminal:SingleDuct:VAV:Reheat = BASEVAV TRMLUNIT-5
   ** Warning ** Since Damper Heating Action = REVERSE, input for Maximum Flow Fraction During Reheat will be ignored.
   **   ~~~   ** Occurs in AirTerminal:SingleDuct:VAV:Reheat = BASEVAV TRMLUNIT-5
   ** Warning ** Since Zone Minimum Air Flow Input Method = FIXEDFLOWRATE, input for Constant Minimum Air Flow Fraction will be ignored.
   **   ~~~   ** Occurs in AirTerminal:SingleDuct:VAV:Reheat = BASEVAV TRMLUNIT-3
   ** Warning ** Since Damper Heating Action = REVERSE, input for Maximum Flow Fraction During Reheat will be ignored.
   **   ~~~   ** Occurs in AirTerminal:SingleDuct:VAV:Reheat = BASEVAV TRMLUNIT-3
   ** Warning ** Since Zone Minimum Air Flow Input Method = FIXEDFLOWRATE, input for Constant Minimum Air Flow Fraction will be ignored.
   **   ~~~   ** Occurs in AirTerminal:SingleDuct:VAV:Reheat = BASEVAV TRMLUNIT-6
   ** Warning ** Since Damper Heating Action = REVERSE, input for Maximum Flow Fraction During Reheat will be ignored.
   **   ~~~   ** Occurs in AirTerminal:SingleDuct:VAV:Reheat = BASEVAV TRMLUNIT-6
   ** Warning ** Since Zone Minimum Air Flow Input Method = FIXEDFLOWRATE, input for Constant Minimum Air Flow Fraction will be ignored.
   **   ~~~   ** Occurs in AirTerminal:SingleDuct:VAV:Reheat = BASEVAV TRMLUNIT-7
   ** Warning ** Since Damper Heating Action = REVERSE, input for Maximum Flow Fraction During Reheat will be ignored.
   **   ~~~   ** Occurs in AirTerminal:SingleDuct:VAV:Reheat = BASEVAV TRMLUNIT-7
   ** Warning ** Since Zone Minimum Air Flow Input Method = FIXEDFLOWRATE, input for Constant Minimum Air Flow Fraction will be ignored.
   **   ~~~   ** Occurs in AirTerminal:SingleDuct:VAV:Reheat = BASEVAV TRMLUNIT-8
   ** Warning ** Since Damper Heating Action = REVERSE, input for Maximum Flow Fraction During Reheat will be ignored.
   **   ~~~   ** Occurs in AirTerminal:SingleDuct:VAV:Reheat = BASEVAV TRMLUNIT-8
   ** Warning ** Since Zone Minimum Air Flow Input Method = FIXEDFLOWRATE, input for Constant Minimum Air Flow Fraction will be ignored.
   **   ~~~   ** Occurs in AirTerminal:SingleDuct:VAV:Reheat = BASEVAV TRMLUNIT-9
   ** Warning ** Since Damper Heating Action = REVERSE, input for Maximum Flow Fraction During Reheat will be ignored.
   **   ~~~   ** Occurs in AirTerminal:SingleDuct:VAV:Reheat = BASEVAV TRMLUNIT-9
   ** Warning ** Since Zone Minimum Air Flow Input Method = FIXEDFLOWRATE, input for Constant Minimum Air Flow Fraction will be ignored.
   **   ~~~   ** Occurs in AirTerminal:SingleDuct:VAV:Reheat = BASEVAV TRMLUNIT-10
   ** Warning ** Since Damper Heating Action = REVERSE, input for Maximum Flow Fraction During Reheat will be ignored.
   **   ~~~   ** Occurs in AirTerminal:SingleDuct:VAV:Reheat = BASEVAV TRMLUNIT-10
   ************* Beginning Plant Sizing Calculations
   ** Warning ** The Standard Ratings is calculated for Coil:Cooling:DX:SingleSpeed = COILCOOLING 3 but not at the AHRI test condition due to curve out of bound.
   **   ~~~   **  Review the Standard Ratings calculations in the Engineering Reference for this coil type. Also, use Output:Diagnostics, DisplayExtraWarnings for further guidance.
   ** Warning ** The Standard Ratings is calculated for Coil:Cooling:DX:SingleSpeed = COILCOOLING 1 but not at the AHRI test condition due to curve out of bound.
   **   ~~~   **  Review the Standard Ratings calculations in the Engineering Reference for this coil type. Also, use Output:Diagnostics, DisplayExtraWarnings for further guidance.
   ** Warning ** The Standard Ratings is calculated for Coil:Cooling:DX:SingleSpeed = COILCOOLING 2 but not at the AHRI test condition due to curve out of bound.
   **   ~~~   **  Review the Standard Ratings calculations in the Engineering Reference for this coil type. Also, use Output:Diagnostics, DisplayExtraWarnings for further guidance.
   ** Warning ** The Standard Ratings is calculated for Coil:Cooling:DX:SingleSpeed = COILCOOLING 4 but not at the AHRI test condition due to curve out of bound.
   **   ~~~   **  Review the Standard Ratings calculations in the Engineering Reference for this coil type. Also, use Output:Diagnostics, DisplayExtraWarnings for further guidance.
   ** Warning ** The Standard Ratings is calculated for Coil:Cooling:DX:SingleSpeed = COILCOOLING 5 but not at the AHRI test condition due to curve out of bound.
   **   ~~~   **  Review the Standard Ratings calculations in the Engineering Reference for this coil type. Also, use Output:Diagnostics, DisplayExtraWarnings for further guidance.
   ** Warning ** The Standard Ratings is calculated for Coil:Cooling:DX:SingleSpeed = COILCOOLING 6 but not at the AHRI test condition due to curve out of bound.
   **   ~~~   **  Review the Standard Ratings calculations in the Engineering Reference for this coil type. Also, use Output:Diagnostics, DisplayExtraWarnings for further guidance.
   ** Warning ** The Standard Ratings is calculated for Coil:Cooling:DX:SingleSpeed = COILCOOLING 7 but not at the AHRI test condition due to curve out of bound.
   **   ~~~   **  Review the Standard Ratings calculations in the Engineering Reference for this coil type. Also, use Output:Diagnostics, DisplayExtraWarnings for further guidance.
   ** Warning ** The Standard Ratings is calculated for Coil:Cooling:DX:SingleSpeed = COILCOOLING 8 but not at the AHRI test condition due to curve out of bound.
   **   ~~~   **  Review the Standard Ratings calculations in the Engineering Reference for this coil type. Also, use Output:Diagnostics, DisplayExtraWarnings for further guidance.
   ** Warning ** The Standard Ratings is calculated for Coil:Cooling:DX:SingleSpeed = COILCOOLING 9 but not at the AHRI test condition due to curve out of bound.
   **   ~~~   **  Review the Standard Ratings calculations in the Engineering Reference for this coil type. Also, use Output:Diagnostics, DisplayExtraWarnings for further guidance.
   ** Warning ** The Standard Ratings is calculated for Coil:Cooling:DX:SingleSpeed = COILCOOLING 10 but not at the AHRI test condition due to curve out of bound.
   **   ~~~   **  Review the Standard Ratings calculations in the Engineering Reference for this coil type. Also, use Output:Diagnostics, DisplayExtraWarnings for further guidance.
   ** Warning ** The Standard Ratings is calculated for Coil:Cooling:DX:SingleSpeed = COILCOOLING 11 but not at the AHRI test condition due to curve out of bound.
   **   ~~~   **  Review the Standard Ratings calculations in the Engineering Reference for this coil type. Also, use Output:Diagnostics, DisplayExtraWarnings for further guidance.
   ** Warning ** The Standard Ratings is calculated for Coil:Cooling:DX:SingleSpeed = COILCOOLING 14 but not at the AHRI test condition due to curve out of bound.
   **   ~~~   **  Review the Standard Ratings calculations in the Engineering Reference for this coil type. Also, use Output:Diagnostics, DisplayExtraWarnings for further guidance.
   ** Warning ** The Standard Ratings is calculated for Coil:Cooling:DX:SingleSpeed = COILCOOLING 12 but not at the AHRI test condition due to curve out of bound.
   **   ~~~   **  Review the Standard Ratings calculations in the Engineering Reference for this coil type. Also, use Output:Diagnostics, DisplayExtraWarnings for further guidance.
   ** Warning ** The Standard Ratings is calculated for Coil:Cooling:DX:SingleSpeed = COILCOOLING 13 but not at the AHRI test condition due to curve out of bound.
   **   ~~~   **  Review the Standard Ratings calculations in the Engineering Reference for this coil type. Also, use Output:Diagnostics, DisplayExtraWarnings for further guidance.
   ** Warning ** The Standard Ratings is calculated for Coil:Cooling:DX:SingleSpeed = COILCOOLING 15 but not at the AHRI test condition due to curve out of bound.
   **   ~~~   **  Review the Standard Ratings calculations in the Engineering Reference for this coil type. Also, use Output:Diagnostics, DisplayExtraWarnings for further guidance.
   ** Warning ** The Standard Ratings is calculated for Coil:Cooling:DX:SingleSpeed = COILCOOLING 16 but not at the AHRI test condition due to curve out of bound.
   **   ~~~   **  Review the Standard Ratings calculations in the Engineering Reference for this coil type. Also, use Output:Diagnostics, DisplayExtraWarnings for further guidance.
   ** Warning ** The Standard Ratings is calculated for Coil:Cooling:DX:SingleSpeed = COILCOOLING 17 but not at the AHRI test condition due to curve out of bound.
   **   ~~~   **  Review the Standard Ratings calculations in the Engineering Reference for this coil type. Also, use Output:Diagnostics, DisplayExtraWarnings for further guidance.
   ** Warning ** The Standard Ratings is calculated for Coil:Cooling:DX:SingleSpeed = COILCOOLING 18 but not at the AHRI test condition due to curve out of bound.
   **   ~~~   **  Review the Standard Ratings calculations in the Engineering Reference for this coil type. Also, use Output:Diagnostics, DisplayExtraWarnings for further guidance.
   ** Warning ** The Standard Ratings is calculated for Coil:Cooling:DX:SingleSpeed = COILCOOLING 19 but not at the AHRI test condition due to curve out of bound.
   **   ~~~   **  Review the Standard Ratings calculations in the Engineering Reference for this coil type. Also, use Output:Diagnostics, DisplayExtraWarnings for further guidance.
   ** Warning ** The Standard Ratings is calculated for Coil:Cooling:DX:SingleSpeed = COILCOOLING 20 but not at the AHRI test condition due to curve out of bound.
   **   ~~~   **  Review the Standard Ratings calculations in the Engineering Reference for this coil type. Also, use Output:Diagnostics, DisplayExtraWarnings for further guidance.
   ** Warning ** The Standard Ratings is calculated for Coil:Cooling:DX:SingleSpeed = COILCOOLING 21 but not at the AHRI test condition due to curve out of bound.
   **   ~~~   **  Review the Standard Ratings calculations in the Engineering Reference for this coil type. Also, use Output:Diagnostics, DisplayExtraWarnings for further guidance.
   ** Warning ** The Standard Ratings is calculated for Coil:Cooling:DX:SingleSpeed = COILCOOLING 22 but not at the AHRI test condition due to curve out of bound.
   **   ~~~   **  Review the Standard Ratings calculations in the Engineering Reference for this coil type. Also, use Output:Diagnostics, DisplayExtraWarnings for further guidance.
   ** Warning ** In zone THERMAL ZONE: F2-4 1-BED CORE EAST there is unbalanced air flow. Load due to induced outdoor air is neglected.
   **   ~~~   **  Environment=BURBANK-GLENDALE-PASSADE SEP CLG 0.4% CONDNS DB=>MCWB, at Simulation time=09/21 24:00 - 24:15
   **   ~~~   **   Flows [kg/s]: Inlets: 0.707819  Unbalanced exhausts: 0.829325  Returns: 0.000000
   **   ~~~   **   Infiltration: 4.084819E-002  Ventilation: 0.000000  Mixing(incoming): 0.000000
   **   ~~~   **   Imbalance (excess outflow): 8.065766E-002  This error will only be reported once per zone.
   ** Warning ** In zone THERMAL ZONE: F2-4 1-BED CORE N there is unbalanced air flow. Load due to induced outdoor air is neglected.
   **   ~~~   **  Environment=BURBANK-GLENDALE-PASSADE SEP CLG 0.4% CONDNS DB=>MCWB, at Simulation time=09/21 24:00 - 24:15
   **   ~~~   **   Flows [kg/s]: Inlets: 0.342113  Unbalanced exhausts: 0.402866  Returns: 0.000000
   **   ~~~   **   Infiltration: 2.021557E-002  Ventilation: 0.000000  Mixing(incoming): 0.000000
   **   ~~~   **   Imbalance (excess outflow): 4.053736E-002  This error will only be reported once per zone.
   ** Warning ** In zone THERMAL ZONE: F2-4 1-BED CORE WEST there is unbalanced air flow. Load due to induced outdoor air is neglected.
   **   ~~~   **  Environment=BURBANK-GLENDALE-PASSADE SEP CLG 0.4% CONDNS DB=>MCWB, at Simulation time=09/21 24:00 - 24:15
   **   ~~~   **   Flows [kg/s]: Inlets: 0.694338  Unbalanced exhausts: 0.815844  Returns: 0.000000
   **   ~~~   **   Infiltration: 4.084819E-002  Ventilation: 0.000000  Mixing(incoming): 0.000000
   **   ~~~   **   Imbalance (excess outflow): 8.065766E-002  This error will only be reported once per zone.
   ** Warning ** In zone THERMAL ZONE: F2-4 1-BED NORTH there is unbalanced air flow. Load due to induced outdoor air is neglected.
   **   ~~~   **  Environment=BURBANK-GLENDALE-PASSADE SEP CLG 0.4% CONDNS DB=>MCWB, at Simulation time=09/21 24:00 - 24:15
   **   ~~~   **   Flows [kg/s]: Inlets: 1.737213  Unbalanced exhausts: 2.046953  Returns: 0.000000
   **   ~~~   **   Infiltration: 0.102925  Ventilation: 0.000000  Mixing(incoming): 0.000000
   **   ~~~   **   Imbalance (excess outflow): 0.206815  This error will only be reported once per zone.
   ** Warning ** In zone THERMAL ZONE: F2-4 2-BED CORE NE-NW there is unbalanced air flow. Load due to induced outdoor air is neglected.
   **   ~~~   **  Environment=BURBANK-GLENDALE-PASSADE SEP CLG 0.4% CONDNS DB=>MCWB, at Simulation time=09/21 24:00 - 24:15
   **   ~~~   **   Flows [kg/s]: Inlets: 0.953254  Unbalanced exhausts: 1.135513  Returns: 0.000000
   **   ~~~   **   Infiltration: 5.892941E-002  Ventilation: 0.000000  Mixing(incoming): 0.000000
   **   ~~~   **   Imbalance (excess outflow): 0.123329  This error will only be reported once per zone.
   ** Warning ** In zone THERMAL ZONE: F2-4 2-BED EAST there is unbalanced air flow. Load due to induced outdoor air is neglected.
   **   ~~~   **  Environment=BURBANK-GLENDALE-PASSADE SEP CLG 0.4% CONDNS DB=>MCWB, at Simulation time=09/21 24:00 - 24:15
   **   ~~~   **   Flows [kg/s]: Inlets: 1.587009  Unbalanced exhausts: 1.860397  Returns: 0.000000
   **   ~~~   **   Infiltration: 9.198100E-002  Ventilation: 0.000000  Mixing(incoming): 0.000000
   **   ~~~   **   Imbalance (excess outflow): 0.181407  This error will only be reported once per zone.
   ** Warning ** In zone THERMAL ZONE: F2-4 2-BED WEST there is unbalanced air flow. Load due to induced outdoor air is neglected.
   **   ~~~   **  Environment=BURBANK-GLENDALE-PASSADE SEP CLG 0.4% CONDNS DB=>MCWB, at Simulation time=09/21 24:00 - 24:15
   **   ~~~   **   Flows [kg/s]: Inlets: 1.634005  Unbalanced exhausts: 1.907394  Returns: 0.000000
   **   ~~~   **   Infiltration: 9.198100E-002  Ventilation: 0.000000  Mixing(incoming): 0.000000
   **   ~~~   **   Imbalance (excess outflow): 0.181407  This error will only be reported once per zone.
   ** Warning ** In zone THERMAL ZONE: F2-4 3-BED NE there is unbalanced air flow. Load due to induced outdoor air is neglected.
   **   ~~~   **  Environment=BURBANK-GLENDALE-PASSADE SEP CLG 0.4% CONDNS DB=>MCWB, at Simulation time=09/21 24:00 - 24:15
   **   ~~~   **   Flows [kg/s]: Inlets: 0.706577  Unbalanced exhausts: 0.826589  Returns: 0.000000
   **   ~~~   **   Infiltration: 4.097193E-002  Ventilation: 0.000000  Mixing(incoming): 0.000000
   **   ~~~   **   Imbalance (excess outflow): 7.904000E-002  This error will only be reported once per zone.
   ** Warning ** In zone THERMAL ZONE: F2-4 3-BED NW there is unbalanced air flow. Load due to induced outdoor air is neglected.
   **   ~~~   **  Environment=BURBANK-GLENDALE-PASSADE SEP CLG 0.4% CONDNS DB=>MCWB, at Simulation time=09/21 24:00 - 24:15
   **   ~~~   **   Flows [kg/s]: Inlets: 0.725060  Unbalanced exhausts: 0.845072  Returns: 0.000000
   **   ~~~   **   Infiltration: 4.097193E-002  Ventilation: 0.000000  Mixing(incoming): 0.000000
   **   ~~~   **   Imbalance (excess outflow): 7.904000E-002  This error will only be reported once per zone.
   ** Warning ** In zone THERMAL ZONE: F2-4 STUDIO SE there is unbalanced air flow. Load due to induced outdoor air is neglected.
   **   ~~~   **  Environment=BURBANK-GLENDALE-PASSADE SEP CLG 0.4% CONDNS DB=>MCWB, at Simulation time=09/21 24:00 - 24:15
   **   ~~~   **   Flows [kg/s]: Inlets: 0.315320  Unbalanced exhausts: 0.367109  Returns: 0.000000
   **   ~~~   **   Infiltration: 1.822193E-002  Ventilation: 0.000000  Mixing(incoming): 0.000000
   **   ~~~   **   Imbalance (excess outflow): 3.356746E-002  This error will only be reported once per zone.
   ** Warning ** In zone THERMAL ZONE: F2-4 STUDIO SW there is unbalanced air flow. Load due to induced outdoor air is neglected.
   **   ~~~   **  Environment=BURBANK-GLENDALE-PASSADE SEP CLG 0.4% CONDNS DB=>MCWB, at Simulation time=09/21 24:00 - 24:15
   **   ~~~   **   Flows [kg/s]: Inlets: 0.310087  Unbalanced exhausts: 0.361876  Returns: 0.000000
   **   ~~~   **   Infiltration: 1.822193E-002  Ventilation: 0.000000  Mixing(incoming): 0.000000
   **   ~~~   **   Imbalance (excess outflow): 3.356746E-002  This error will only be reported once per zone.
   ** Warning ** In zone THERMAL ZONE: F5 2-BED CORE NE-NW there is unbalanced air flow. Load due to induced outdoor air is neglected.
   **   ~~~   **  Environment=BURBANK-GLENDALE-PASSADE SEP CLG 0.4% CONDNS DB=>MCWB, at Simulation time=09/21 24:00 - 24:15
   **   ~~~   **   Flows [kg/s]: Inlets: 0.314259  Unbalanced exhausts: 0.375012  Returns: 0.000000
   **   ~~~   **   Infiltration: 5.921473E-002  Ventilation: 0.000000  Mixing(incoming): 0.000000
   **   ~~~   **   Imbalance (excess outflow): 1.538195E-003  This error will only be reported once per zone.
   ** Warning ** Controller:MechanicalVentilation="BASESYS5 OACTRL MECH VENT CONTROLLER", Zone OA/person rate
   **   ~~~   ** For Zone="THERMAL ZONE: F1 CORRIDOR".
   **   ~~~   ** Zone outside air per person rate not set in Design Specification Outdoor Air Object="THERMAL ZONE: F1 CORRIDOR DESIGN SPECIFICATION OUTDOOR AIR".
   ** Warning ** Controller:MechanicalVentilation="BASESYS5 OACTRL MECH VENT CONTROLLER", Zone OA/person rate
   **   ~~~   ** For Zone="THERMAL ZONE: F1 FITNESS CENTER".
   **   ~~~   ** Zone outside air per person rate not set in Design Specification Outdoor Air Object="THERMAL ZONE: F1 FITNESS CENTER DESIGN SPECIFICATION OUTDOOR AIR".
   ** Warning ** Controller:MechanicalVentilation="BASESYS5 OACTRL MECH VENT CONTROLLER", Zone OA/person rate
   **   ~~~   ** For Zone="THERMAL ZONE: F1 LEASING OFFICE".
   **   ~~~   ** Zone outside air per person rate not set in Design Specification Outdoor Air Object="THERMAL ZONE: F1 LEASING OFFICE DESIGN SPECIFICATION OUTDOOR AIR".
   ** Warning ** Controller:MechanicalVentilation="BASESYS5 OACTRL MECH VENT CONTROLLER", Zone OA/person rate
   **   ~~~   ** For Zone="THERMAL ZONE: F1 MECHANICAL ROOM".
   **   ~~~   ** Zone outside air per person rate not set in Design Specification Outdoor Air Object="THERMAL ZONE: F1 MECHANICAL ROOM DESIGN SPECIFICATION OUTDOOR AIR".
   ** Warning ** Controller:MechanicalVentilation="BASESYS5 OACTRL MECH VENT CONTROLLER", Zone OA/person rate
   **   ~~~   ** For Zone="THERMAL ZONE: F1 RETAIL N-NW".
   **   ~~~   ** Zone outside air per person rate not set in Design Specification Outdoor Air Object="THERMAL ZONE: F1 RETAIL N-NW DESIGN SPECIFICATION OUTDOOR AIR".
   ** Warning ** Controller:MechanicalVentilation="BASESYS5 OACTRL MECH VENT CONTROLLER", Zone OA/person rate
   **   ~~~   ** For Zone="THERMAL ZONE: F1 RETAIL NE".
   **   ~~~   ** Zone outside air per person rate not set in Design Specification Outdoor Air Object="THERMAL ZONE: F1 RETAIL NE DESIGN SPECIFICATION OUTDOOR AIR".
   ** Warning ** Controller:MechanicalVentilation="BASESYS5 OACTRL MECH VENT CONTROLLER", Zone OA/person rate
   **   ~~~   ** For Zone="THERMAL ZONE: F1 RETAIL SE".
   **   ~~~   ** Zone outside air per person rate not set in Design Specification Outdoor Air Object="THERMAL ZONE: F1 RETAIL SE DESIGN SPECIFICATION OUTDOOR AIR".
   ** Warning ** Controller:MechanicalVentilation="BASESYS5 OACTRL MECH VENT CONTROLLER", Zone OA/person rate
   **   ~~~   ** For Zone="THERMAL ZONE: F1 RETAIL SW".
   **   ~~~   ** Zone outside air per person rate not set in Design Specification Outdoor Air Object="THERMAL ZONE: F1 RETAIL SW DESIGN SPECIFICATION OUTDOOR AIR".
   ** Warning ** The Standard Ratings is calculated for Coil:Cooling:DX:SingleSpeed = DOAS1 COILCLG but not at the AHRI test condition due to curve out of bound.
   **   ~~~   **  Review the Standard Ratings calculations in the Engineering Reference for this coil type. Also, use Output:Diagnostics, DisplayExtraWarnings for further guidance.
   ** Warning ** Missing temperature setpoint for LeavingSetpointModulated mode Boiler named BASE BLR
   **   ~~~   **   A temperature setpoint is needed at the outlet node of a boiler in variable flow mode, use a SetpointManager
   **   ~~~   **   The overall loop setpoint will be assumed for Boiler. The simulation continues ... 
   ** Warning ** Check input. Pump nominal power or motor efficiency is set to 0, for pump={4036CAA6-41FB-4775-B75F-E9FCD0A5FD46}
   ** Warning ** Check input. Pump nominal power or motor efficiency is set to 0, for pump={E65F5F54-152C-4020-AF2D-95DE0664BBAE}
   ** Warning ** Output:Meter:MeterFileOnly: invalid Key Name="REFRIG:INTERIOREQUIPMENT:ELECTRICITY" - not found.
   ** Warning ** Output:Meter:MeterFileOnly: invalid Key Name="HEATRECOVERY:DISTRICTCOOLING" - not found.
   ** Warning ** Output:Meter:MeterFileOnly: invalid Key Name="REFRIG:EXTERIOREQUIPMENT:ELECTRICITY" - not found.
   ** Warning ** Output:Meter:MeterFileOnly: invalid Key Name="WATERSYSTEMS:DISTRICTCOOLING" - not found.
   ** Warning ** Output:Meter:MeterFileOnly: invalid Key Name="EXTERIOREQUIPMENT:DISTRICTHEATING" - not found.
   ** Warning ** Output:Meter:MeterFileOnly: invalid Key Name="INTERIORLIGHTS:DISTRICTHEATING" - not found.
   ** Warning ** Output:Meter:MeterFileOnly: invalid Key Name="HEATING:DISTRICTCOOLING" - not found.
   ** Warning ** Output:Meter:MeterFileOnly: invalid Key Name="HEATRECOVERY:ELECTRICITY" - not found.
   ** Warning ** Output:Meter:MeterFileOnly: invalid Key Name="REFRIGERATION:DISTRICTCOOLING" - not found.
   ** Warning ** Output:Meter:MeterFileOnly: invalid Key Name="HEATREJECTION:DISTRICTCOOLING" - not found.
   ** Warning ** Output:Meter:MeterFileOnly: invalid Key Name="FANS:DISTRICTHEATING" - not found.
   ** Warning ** Output:Meter:MeterFileOnly: invalid Key Name="EXTERIORLIGHTS:GAS" - not found.
   ** Warning ** Output:Meter:MeterFileOnly: invalid Key Name="EXTERIORLIGHTS:ELECTRICITY" - not found.
   ** Warning ** Output:Meter:MeterFileOnly: invalid Key Name="COOLING:DISTRICTCOOLING" - not found.
   ** Warning ** Output:Meter:MeterFileOnly: invalid Key Name="HEATREJECTION:ELECTRICITY" - not found.
   ** Warning ** Output:Meter:MeterFileOnly: invalid Key Name="HEATING:DISTRICTHEATING" - not found.
   ** Warning ** Output:Meter:MeterFileOnly: invalid Key Name="EXTERIOREQUIPMENT:ELECTRICITY" - not found.
   ** Warning ** Output:Meter:MeterFileOnly: invalid Key Name="COGENERATION:DISTRICTCOOLING" - not found.
   ** Warning ** Output:Meter:MeterFileOnly: invalid Key Name="HUMIDIFIER:ELECTRICITY" - not found.
   ** Warning ** Output:Meter:MeterFileOnly: invalid Key Name="HUMIDIFIER:DISTRICTCOOLING" - not found.
   ** Warning ** Output:Meter:MeterFileOnly: invalid Key Name="COGENERATION:ELECTRICITY" - not found.
   ** Warning ** Output:Meter:MeterFileOnly: invalid Key Name="REFRIGERATION:ELECTRICITY" - not found.
   ** Warning ** Output:Meter:MeterFileOnly: invalid Key Name="PROCESS:INTERIOREQUIPMENT:GAS" - not found.
   ** Warning ** Output:Meter:MeterFileOnly: invalid Key Name="INTERIORLIGHTS:GAS" - not found.
   ** Warning ** Output:Meter:MeterFileOnly: invalid Key Name="PUMPS:DISTRICTHEATING" - not found.
   ** Warning ** Output:Meter:MeterFileOnly: invalid Key Name="HEATREJECTION:GAS" - not found.
   ** Warning ** Output:Meter:MeterFileOnly: invalid Key Name="EXTERIOREQUIPMENT:GAS" - not found.
   ** Warning ** Output:Meter:MeterFileOnly: invalid Key Name="DISTRICTCOOLING:FACILITY" - not found.
   ** Warning ** Output:Meter:MeterFileOnly: invalid Key Name="FANS:GAS" - not found.
   ** Warning ** Output:Meter:MeterFileOnly: invalid Key Name="HUMIDIFIER:GAS" - not found.
   ** Warning ** Output:Meter:MeterFileOnly: invalid Key Name="COGENERATION:DISTRICTHEATING" - not found.
   ** Warning ** Output:Meter:MeterFileOnly: invalid Key Name="PUMPS:GAS" - not found.
   ** Warning ** Output:Meter:MeterFileOnly: invalid Key Name="COOLING:GAS" - not found.
   ** Warning ** Output:Meter:MeterFileOnly: invalid Key Name="HEATRECOVERY:GAS" - not found.
   ** Warning ** Output:Meter:MeterFileOnly: invalid Key Name="COGENERATION:GAS" - not found.
   ** Warning ** Output:Meter:MeterFileOnly: invalid Key Name="REFRIGERATION:GAS" - not found.
   ** Warning ** Output:Meter:MeterFileOnly: invalid Key Name="INTERIORLIGHTS:DISTRICTCOOLING" - not found.
   ** Warning ** Output:Meter:MeterFileOnly: invalid Key Name="EXTERIORLIGHTS:DISTRICTCOOLING" - not found.
   ** Warning ** Output:Meter:MeterFileOnly: invalid Key Name="INTERIOREQUIPMENT:DISTRICTCOOLING" - not found.
   ** Warning ** Output:Meter:MeterFileOnly: invalid Key Name="EXTERIOREQUIPMENT:DISTRICTCOOLING" - not found.
   ** Warning ** Output:Meter:MeterFileOnly: invalid Key Name="FANS:DISTRICTCOOLING" - not found.
   ** Warning ** Output:Meter:MeterFileOnly: invalid Key Name="COOLING:DISTRICTHEATING" - not found.
   ** Warning ** Output:Meter:MeterFileOnly: invalid Key Name="PUMPS:DISTRICTCOOLING" - not found.
   ** Warning ** Output:Meter:MeterFileOnly: invalid Key Name="EXTERIORLIGHTS:DISTRICTHEATING" - not found.
   ** Warning ** Output:Meter:MeterFileOnly: invalid Key Name="DISTRICTHEATING:FACILITY" - not found.
   ** Warning ** Output:Meter:MeterFileOnly: invalid Key Name="INTERIOREQUIPMENT:DISTRICTHEATING" - not found.
   ** Warning ** Output:Meter:MeterFileOnly: invalid Key Name="HEATREJECTION:DISTRICTHEATING" - not found.
   ** Warning ** Output:Meter:MeterFileOnly: invalid Key Name="HUMIDIFIER:DISTRICTHEATING" - not found.
   ** Warning ** Output:Meter:MeterFileOnly: invalid Key Name="HEATRECOVERY:DISTRICTHEATING" - not found.
   ** Warning ** Output:Meter:MeterFileOnly: invalid Key Name="WATERSYSTEMS:DISTRICTHEATING" - not found.
   ** Warning ** Output:Meter:MeterFileOnly: invalid Key Name="REFRIGERATION:DISTRICTHEATING" - not found.
   ** Warning ** Output:Meter:MeterFileOnly: invalid Key Name="PROCESS:INTERIOREQUIPMENT:ELECTRICITY" - not found.
   ** Warning ** Output:Meter:MeterFileOnly: invalid Key Name="INTERNAL TRANSPORT:INTERIOREQUIPMENT:ELECTRICITY" - not found.
   ** Warning ** Output:Meter:MeterFileOnly: invalid Key Name="RECEPTACLE:EXTERIOREQUIPMENT:ELECTRICITY" - not found.
   ** Warning ** Output:Meter:MeterFileOnly: invalid Key Name="PROCESS:EXTERIOREQUIPMENT:ELECTRICITY" - not found.
   ** Warning ** Output:Meter:MeterFileOnly: invalid Key Name="RECEPTACLE:EXTERIOREQUIPMENT:GAS" - not found.
   ** Warning ** Output:Meter:MeterFileOnly: invalid Key Name="PROCESS:EXTERIOREQUIPMENT:GAS" - not found.
   ** Warning ** Output:Meter:MeterFileOnly: invalid Key Name="REG LTG:EXTERIORLIGHTS:ELECTRICITY" - not found.
   ** Warning ** Output:Meter:MeterFileOnly: invalid Key Name="NONREG LTG:EXTERIORLIGHTS:ELECTRICITY" - not found.
   ************* Testing Individual Branch Integrity
   ************* All Branches passed integrity testing
   ************* Testing Individual Supply Air Path Integrity
   ************* All Supply Air Paths passed integrity testing
   ************* Testing Individual Return Air Path Integrity
   ************* All Return Air Paths passed integrity testing
   ************* No node connection errors were found.
   ************* Beginning Simulation
   ** Warning ** In zone THERMAL ZONE: F5 1-BED CORE EAST there is unbalanced exhaust air flow with no airloop serving the zone with outdoor air.
   **   ~~~   **  Environment=BURBANK-GLENDALE_722880_CZ2010, at Simulation time=01/01 00:00 - 00:15
   **   ~~~   **   Unless there is balancing infiltration / ventilation air flow, this will result in
   **   ~~~   **   load due to induced outdoor air being neglected in the simulation.
   ** Warning ** In zone THERMAL ZONE: F5 1-BED CORE N there is unbalanced exhaust air flow with no airloop serving the zone with outdoor air.
   **   ~~~   **  Environment=BURBANK-GLENDALE_722880_CZ2010, at Simulation time=01/01 00:00 - 00:15
   **   ~~~   **   Unless there is balancing infiltration / ventilation air flow, this will result in
   **   ~~~   **   load due to induced outdoor air being neglected in the simulation.
   ** Warning ** In zone THERMAL ZONE: F5 1-BED CORE WEST there is unbalanced exhaust air flow with no airloop serving the zone with outdoor air.
   **   ~~~   **  Environment=BURBANK-GLENDALE_722880_CZ2010, at Simulation time=01/01 00:00 - 00:15
   **   ~~~   **   Unless there is balancing infiltration / ventilation air flow, this will result in
   **   ~~~   **   load due to induced outdoor air being neglected in the simulation.
   ** Warning ** In zone THERMAL ZONE: F5 1-BED NORTH there is unbalanced exhaust air flow with no airloop serving the zone with outdoor air.
   **   ~~~   **  Environment=BURBANK-GLENDALE_722880_CZ2010, at Simulation time=01/01 00:00 - 00:15
   **   ~~~   **   Unless there is balancing infiltration / ventilation air flow, this will result in
   **   ~~~   **   load due to induced outdoor air being neglected in the simulation.
   ** Warning ** In zone THERMAL ZONE: F5 2-BED EAST there is unbalanced exhaust air flow with no airloop serving the zone with outdoor air.
   **   ~~~   **  Environment=BURBANK-GLENDALE_722880_CZ2010, at Simulation time=01/01 00:00 - 00:15
   **   ~~~   **   Unless there is balancing infiltration / ventilation air flow, this will result in
   **   ~~~   **   load due to induced outdoor air being neglected in the simulation.
   ** Warning ** In zone THERMAL ZONE: F5 2-BED WEST there is unbalanced exhaust air flow with no airloop serving the zone with outdoor air.
   **   ~~~   **  Environment=BURBANK-GLENDALE_722880_CZ2010, at Simulation time=01/01 00:00 - 00:15
   **   ~~~   **   Unless there is balancing infiltration / ventilation air flow, this will result in
   **   ~~~   **   load due to induced outdoor air being neglected in the simulation.
   ** Warning ** In zone THERMAL ZONE: F5 3-BED NE there is unbalanced exhaust air flow with no airloop serving the zone with outdoor air.
   **   ~~~   **  Environment=BURBANK-GLENDALE_722880_CZ2010, at Simulation time=01/01 00:00 - 00:15
   **   ~~~   **   Unless there is balancing infiltration / ventilation air flow, this will result in
   **   ~~~   **   load due to induced outdoor air being neglected in the simulation.
   ** Warning ** In zone THERMAL ZONE: F5 3-BED NW there is unbalanced exhaust air flow with no airloop serving the zone with outdoor air.
   **   ~~~   **  Environment=BURBANK-GLENDALE_722880_CZ2010, at Simulation time=01/01 00:00 - 00:15
   **   ~~~   **   Unless there is balancing infiltration / ventilation air flow, this will result in
   **   ~~~   **   load due to induced outdoor air being neglected in the simulation.
   ** Warning ** In zone THERMAL ZONE: F5 STUDIO SE there is unbalanced exhaust air flow with no airloop serving the zone with outdoor air.
   **   ~~~   **  Environment=BURBANK-GLENDALE_722880_CZ2010, at Simulation time=01/01 00:00 - 00:15
   **   ~~~   **   Unless there is balancing infiltration / ventilation air flow, this will result in
   **   ~~~   **   load due to induced outdoor air being neglected in the simulation.
   ** Warning ** In zone THERMAL ZONE: F5 STUDIO SW there is unbalanced exhaust air flow with no airloop serving the zone with outdoor air.
   **   ~~~   **  Environment=BURBANK-GLENDALE_722880_CZ2010, at Simulation time=01/01 00:00 - 00:15
   **   ~~~   **   Unless there is balancing infiltration / ventilation air flow, this will result in
   **   ~~~   **   load due to induced outdoor air being neglected in the simulation.
   ** Warning ** SimHVAC: Maximum iterations (20) exceeded for all HVAC loops, at BURBANK-GLENDALE_722880_CZ2010, 01/02 15:30 - 15:45
   **   ~~~   ** The solution for one or more of the Air Loop HVAC systems did not appear to converge
   **   ~~~   ** ...use Output:Diagnostics,DisplayExtraWarnings; to show more details on each max iteration exceeded.
   ** Warning ** SimHVAC: Maximum iterations (20) exceeded for all HVAC loops, at BURBANK-GLENDALE_722880_CZ2010, 01/02 15:45 - 16:00
   **   ~~~   ** The solution for one or more of the Air Loop HVAC systems did not appear to converge
   ** Warning ** SimHVAC: Maximum iterations (20) exceeded for all HVAC loops, at BURBANK-GLENDALE_722880_CZ2010, 01/02 16:00 - 16:15
   **   ~~~   ** The solution for one or more of the Air Loop HVAC systems did not appear to converge
   ** Warning ** SimHVAC: Maximum iterations (20) exceeded for all HVAC loops, at BURBANK-GLENDALE_722880_CZ2010, 01/02 16:15 - 16:30
   **   ~~~   ** The solution for one or more of the Air Loop HVAC systems did not appear to converge
   ** Warning ** SimHVAC: Maximum iterations (20) exceeded for all HVAC loops, at BURBANK-GLENDALE_722880_CZ2010, 01/02 16:30 - 16:45
   **   ~~~   ** The solution for one or more of the Air Loop HVAC systems did not appear to converge
   ** Warning ** SimHVAC: Maximum iterations (20) exceeded for all HVAC loops, at BURBANK-GLENDALE_722880_CZ2010, 01/02 16:45 - 17:00
   **   ~~~   ** The solution for one or more of the Air Loop HVAC systems did not appear to converge
   ** Warning ** SimHVAC: Maximum iterations (20) exceeded for all HVAC loops, at BURBANK-GLENDALE_722880_CZ2010, 01/03 13:15 - 13:30
   **   ~~~   ** The solution for one or more of the Air Loop HVAC systems did not appear to converge
   ** Warning ** SimHVAC: Maximum iterations (20) exceeded for all HVAC loops, at BURBANK-GLENDALE_722880_CZ2010, 01/03 13:30 - 13:45
   **   ~~~   ** The solution for one or more of the Air Loop HVAC systems did not appear to converge
   ** Warning ** SimHVAC: Maximum iterations (20) exceeded for all HVAC loops, at BURBANK-GLENDALE_722880_CZ2010, 01/03 13:30 - 13:38
   **   ~~~   ** The solution for one or more of the Air Loop HVAC systems did not appear to converge
   ** Warning ** SimHVAC: Maximum iterations (20) exceeded for all HVAC loops, at BURBANK-GLENDALE_722880_CZ2010, 01/03 13:38 - 13:45
   **   ~~~   ** The solution for one or more of the Air Loop HVAC systems did not appear to converge
   ** Warning ** SimHVAC: Maximum iterations (20) exceeded for all HVAC loops, at BURBANK-GLENDALE_722880_CZ2010, 01/03 13:45 - 14:00
   **   ~~~   ** The solution for one or more of the Air Loop HVAC systems did not appear to converge
   ** Warning ** SimHVAC: Maximum iterations (20) exceeded for all HVAC loops, at BURBANK-GLENDALE_722880_CZ2010, 01/03 13:45 - 13:53
   **   ~~~   ** The solution for one or more of the Air Loop HVAC systems did not appear to converge
   ** Warning ** SimHVAC: Maximum iterations (20) exceeded for all HVAC loops, at BURBANK-GLENDALE_722880_CZ2010, 01/03 13:53 - 14:00
   **   ~~~   ** The solution for one or more of the Air Loop HVAC systems did not appear to converge
   ** Warning ** SimHVAC: Maximum iterations (20) exceeded for all HVAC loops, at BURBANK-GLENDALE_722880_CZ2010, 01/03 14:00 - 14:15
   **   ~~~   ** The solution for one or more of the Air Loop HVAC systems did not appear to converge
   ** Warning ** CalcDoe2DXCoil: Coil:Cooling:DX:SingleSpeed "DOAS1 COILCLG" - Full load outlet air dry-bulb temperature < 2C. This indicates the possibility of coil frost/freeze. Outlet temperature = -3.37 C.
   **   ~~~   **  ...Occurrence info = BURBANK-GLENDALE_722880_CZ2010, 01/05 14:00 - 14:05
   **   ~~~   ** ... Possible reasons for low outlet air dry-bulb temperatures are: This DX coil
   **   ~~~   **    1) may have a low inlet air dry-bulb temperature. Inlet air temperature = 16.325 C.
   **   ~~~   **    2) may have a low air flow rate per watt of cooling capacity. Check inputs.
   **   ~~~   **    3) is used as part of a HX assisted cooling coil which uses a high sensible effectiveness. Check inputs.
   ************* Simulation Error Summary *************
   ************* There are 1 unused objects in input.
   ************* Use Output:Diagnostics,DisplayUnusedObjects; to see them.
   ************* There are 11 unused schedules in input.
   ************* There are 11 unused week schedules in input.
   ************* There are 21 unused day schedules in input.
   ************* Use Output:Diagnostics,DisplayUnusedSchedules; to see them.
   *************
   ************* ===== Recurring Error Summary =====
   ************* The following recurring error messages occurred.
   *************
   *************  ** Warning ** SimHVAC: Exceeding Maximum iterations for all HVAC loops, during BURBANK-GLENDALE_722880_CZ2010 continues
   *************  **   ~~~   **   This error occurred 452 total times;
   *************  **   ~~~   **   during Warmup 0 times;
   *************  **   ~~~   **   during Sizing 0 times.
   *************
   *************  ** Warning ** CalcDoe2DXCoil: Coil:Cooling:DX:SingleSpeed="DOAS1 COILCLG" - Full load outlet temperature indicates a possibility of frost/freeze error continues. Outlet air temperature statistics follow:
   *************  **   ~~~   **   This error occurred 3778 total times;
   *************  **   ~~~   **   during Warmup 0 times;
   *************  **   ~~~   **   during Sizing 0 times.
   *************  **   ~~~   **   Max=1.999952  Min=-5.703275
   *************
   ************* EnergyPlus Warmup Error Summary. During Warmup: 0 Warning; 0 Severe Errors.
   ************* EnergyPlus Sizing Error Summary. During Sizing: 89 Warning; 0 Severe Errors.
   ************* EnergyPlus Completed Successfully-- 4448 Warning; 0 Severe Errors; Elapsed Time=00hr 02min 57.69sec
