Program Version,EnergyPlus, Version 9.0.1-bb7ca4f0da, YMD=2019.12.13 13:23
! <Version>, Version ID
 Version, 9.0
! <Timesteps per Hour>, #TimeSteps, Minutes per TimeStep {minutes}
 Timesteps per Hour,  4, 15
! <System Convergence Limits>, Minimum System TimeStep {minutes}, Max HVAC Iterations, Minimum Plant Iterations, Maximum Plant Iterations
 System Convergence Limits, 1, 20, 2, 8
! <Simulation Control>, Do Zone Sizing, Do System Sizing, Do Plant Sizing, Do Design Days, Do Weather Simulation, Do HVAC Sizing Simulation
 Simulation Control, Yes, Yes, Yes, Yes, No, No
! <Output Reporting Tolerances>, Tolerance for Time Heating Setpoint Not Met, Tolerance for Zone Cooling Setpoint Not Met Time
 Output Reporting Tolerances, 0.556, 0.556, 
! <Site:GroundTemperature:BuildingSurface>,Jan{C},Feb{C},Mar{C},Apr{C},May{C},Jun{C},Jul{C},Aug{C},Sep{C},Oct{C},Nov{C},Dec{C}
 Site:GroundTemperature:BuildingSurface,  18.00,  18.00,  18.00,  18.00,  18.00,  18.00,  18.00,  18.00,  18.00,  18.00,  18.00,  18.00
! <Site:GroundTemperature:FCfactorMethod>,Jan{C},Feb{C},Mar{C},Apr{C},May{C},Jun{C},Jul{C},Aug{C},Sep{C},Oct{C},Nov{C},Dec{C}
 Site:GroundTemperature:FCfactorMethod,  13.01,  15.33,  18.01,  20.00,  22.78,  23.37,  22.42,  20.16,  17.20,  14.45,  12.50,  11.99
! <Site:GroundTemperature:Shallow>,Jan{C},Feb{C},Mar{C},Apr{C},May{C},Jun{C},Jul{C},Aug{C},Sep{C},Oct{C},Nov{C},Dec{C}
 Site:GroundTemperature:Shallow,  13.00,  13.00,  13.00,  13.00,  13.00,  13.00,  13.00,  13.00,  13.00,  13.00,  13.00,  13.00
! <Site:GroundTemperature:Deep>,Jan{C},Feb{C},Mar{C},Apr{C},May{C},Jun{C},Jul{C},Aug{C},Sep{C},Oct{C},Nov{C},Dec{C}
 Site:GroundTemperature:Deep,  16.00,  16.00,  16.00,  16.00,  16.00,  16.00,  16.00,  16.00,  16.00,  16.00,  16.00,  16.00
! <Site:GroundReflectance>,Jan{dimensionless},Feb{dimensionless},Mar{dimensionless},Apr{dimensionless},May{dimensionless},Jun{dimensionless},Jul{dimensionless},Aug{dimensionless},Sep{dimensionless},Oct{dimensionless},Nov{dimensionless},Dec{dimensionless}
 Site:GroundReflectance,  0.20,  0.20,  0.20,  0.20,  0.20,  0.20,  0.20,  0.20,  0.20,  0.20,  0.20,  0.20
! <Site:GroundReflectance:SnowModifier>, Normal, Daylighting {dimensionless}
 Site:GroundReflectance:SnowModifier,   1.000,   1.000
! <Site:GroundReflectance:Snow>,Jan{dimensionless},Feb{dimensionless},Mar{dimensionless},Apr{dimensionless},May{dimensionless},Jun{dimensionless},Jul{dimensionless},Aug{dimensionless},Sep{dimensionless},Oct{dimensionless},Nov{dimensionless},Dec{dimensionless}
 Site:GroundReflectance:Snow,  0.20,  0.20,  0.20,  0.20,  0.20,  0.20,  0.20,  0.20,  0.20,  0.20,  0.20,  0.20
! <Site:GroundReflectance:Snow:Daylighting>,Jan{dimensionless},Feb{dimensionless},Mar{dimensionless},Apr{dimensionless},May{dimensionless},Jun{dimensionless},Jul{dimensionless},Aug{dimensionless},Sep{dimensionless},Oct{dimensionless},Nov{dimensionless},Dec{dimensionless}
 Site:GroundReflectance:Snow:Daylighting,  0.20,  0.20,  0.20,  0.20,  0.20,  0.20,  0.20,  0.20,  0.20,  0.20,  0.20,  0.20
! <Environment:Weather Station>,Wind Sensor Height Above Ground {m},Wind Speed Profile Exponent {},Wind Speed Profile Boundary Layer Thickness {m},Air Temperature Sensor Height Above Ground {m},Wind Speed Modifier Coefficient-Internal,Temperature Modifier Coefficient-Internal
Environment:Weather Station,10.000,0.140,270.000,1.500,1.586,9.750E-003
! <Site:Location>, Location Name, Latitude {N+/S- Deg}, Longitude {E+/W- Deg},  Time Zone Number {GMT+/-}, Elevation {m},  Standard Pressure at Elevation {Pa}, Standard RhoAir at Elevation
Site:Location,RIVERSIDE-MUNI - USA Custom-722869 WMO#=722869,33.95,-117.44,-8.00,253.00,98322,1.1686
! <Site Water Mains Temperature Information>,Calculation Method{},Water Mains Temperature Schedule Name{},Annual Average Outdoor Air Temperature{C},Maximum Difference In Monthly Average Outdoor Air Temperatures{deltaC},Fixed Default Water Mains Temperature{C}
Site Water Mains Temperature Information,Schedule,WATERMAINCZ10,0.00,0.00,NA
! <Building Information>, Building Name,North Axis {deg},Terrain,  Loads Convergence Tolerance Value,Temperature Convergence Tolerance Value,  Solar Distribution,Maximum Number of Warmup Days,Minimum Number of Warmup Days
 Building Information,Building 1,0.000,Suburbs,4.00000E-002,0.40000,FullExterior,50,6
! <Inside Convection Algorithm>, Algorithm {Simple | TARP | CeilingDiffuser | AdaptiveConvectionAlgorithm}
Inside Convection Algorithm,TARP
! <Outside Convection Algorithm>, Algorithm {SimpleCombined | TARP | MoWitt | DOE-2 | AdaptiveConvectionAlgorithm}
Outside Convection Algorithm,DOE-2
! <Sky Radiance Distribution>, Value {Anisotropic}
Sky Radiance Distribution,Anisotropic
! <Zone Air Solution Algorithm>, Value {ThirdOrderBackwardDifference | AnalyticalSolution | EulerMethod}
 Zone Air Solution Algorithm, ThirdOrderBackwardDifference
! <Zone Air Carbon Dioxide Balance Simulation>, Simulation {Yes/No}, Carbon Dioxide Concentration
 Zone Air Carbon Dioxide Balance Simulation, No,N/A
! <Zone Air Generic Contaminant Balance Simulation>, Simulation {Yes/No}, Generic Contaminant Concentration
 Zone Air Generic Contaminant Balance Simulation, No,N/A
! <Zone Air Mass Flow Balance Simulation>, Enforce Mass Balance, Adjust Zone Mixing, Adjust Zone Infiltration {AddInfiltration | AdjustInfiltration | None}, Infiltration Zones {MixingSourceZonesOnly | AllZones}
 Zone Air Mass Flow Balance Simulation, No,N/A,N/A,N/A
! <HVACSystemRootFindingAlgorithm>, Value {RegulaFalsi | Bisection | BisectionThenRegulaFalsi | RegulaFalsiThenBisection}
 HVACSystemRootFindingAlgorithm, RegulaFalsi
! <Environment:Site Atmospheric Variation>,Wind Speed Profile Exponent {},Wind Speed Profile Boundary Layer Thickness {m},Air Temperature Gradient Coefficient {K/m}
Environment:Site Atmospheric Variation,0.220,370.000,6.500000E-003
! <Surface Geometry>,Starting Corner,Vertex Input Direction,Coordinate System,Daylight Reference Point Coordinate System,Rectangular (Simple) Surface Coordinate System
 Surface Geometry,UpperLeftCorner,Counterclockwise,RelativeCoordinateSystem,RelativeCoordinateSystem,RelativeToZoneOrigin
! <Surface Heat Transfer Algorithm>, Value {CTF - ConductionTransferFunction | EMPD - MoisturePenetrationDepthConductionTransferFunction | CondFD - ConductionFiniteDifference | HAMT - CombinedHeatAndMoistureFiniteElement} - Description,Inside Surface Max Temperature Limit{C}, Surface Convection Coefficient Lower Limit {W/m2-K}, Surface Convection Coefficient Upper Limit {W/m2-K}
Surface Heat Transfer Algorithm, CTF - ConductionTransferFunction,200,0.10,1000.0
! <Shading Summary>, Number of Fixed Detached Shades, Number of Building Detached Shades, Number of Attached Shades
 Shading Summary,0,0,0
! <Zone Summary>, Number of Zones, Number of Zone Surfaces, Number of SubSurfaces
 Zone Summary,35,677,92
! <Zone Information>,Zone Name,North Axis {deg},Origin X-Coordinate {m},Origin Y-Coordinate {m},Origin Z-Coordinate {m},Centroid X-Coordinate {m},Centroid Y-Coordinate {m},Centroid Z-Coordinate {m},Type,Zone Multiplier,Zone List Multiplier,Minimum X {m},Maximum X {m},Minimum Y {m},Maximum Y {m},Minimum Z {m},Maximum Z {m},Ceiling Height {m},Volume {m3},Zone Inside Convection Algorithm {Simple-Detailed-CeilingDiffuser-TrombeWall},Zone Outside Convection Algorithm {Simple-Detailed-Tarp-MoWitt-DOE-2-BLAST}, Floor Area {m2},Exterior Gross Wall Area {m2},Exterior Net Wall Area {m2},Exterior Window Area {m2}, Number of Surfaces, Number of SubSurfaces, Number of Shading SubSurfaces,  Part of Total Building Area
 Zone Information, THERMAL ZONE: F1 BUSINESS CENTER,0.0,0.00,0.00,0.00,40.23,17.31,1.13,1,1,1,36.58,43.89,14.63,19.20,0.00,3.05,3.05,101.94,TARP,DOE-2,33.45,13.94,12.54,1.39,6,1,0,Yes
 Zone Information, THERMAL ZONE: F1 CORRIDOR,0.0,0.00,0.00,0.00,28.97,29.67,1.10,1,1,1,4.57,45.72,14.63,47.24,0.00,3.05,3.05,543.68,TARP,DOE-2,178.37,80.83,72.74,8.08,33,4,0,Yes
 Zone Information, THERMAL ZONE: F1 FITNESS CENTER,0.0,0.00,0.00,0.00,50.29,24.38,0.87,1,1,1,45.72,54.86,19.81,28.96,0.00,3.05,3.05,254.85,TARP,DOE-2,83.61,27.87,25.08,2.79,7,1,0,Yes
 Zone Information, THERMAL ZONE: F1 LEASING OFFICE,0.0,0.00,0.00,0.00,2.29,25.45,1.05,1,1,1,0.00,4.57,21.95,28.96,0.00,3.05,3.05,97.69,TARP,DOE-2,32.05,21.37,19.23,2.14,6,1,0,Yes
 Zone Information, THERMAL ZONE: F1 LOUNGE,0.0,0.00,0.00,0.00,45.47,19.55,0.93,1,1,1,36.58,54.86,14.63,23.77,0.00,3.05,3.05,297.33,TARP,DOE-2,97.55,29.73,26.76,2.97,9,2,0,Yes
 Zone Information, THERMAL ZONE: F1 MECHANICAL ROOM,0.0,0.00,0.00,0.00,8.69,24.38,1.01,1,1,1,4.57,12.80,21.95,26.82,0.00,3.05,3.05,122.33,TARP,DOE-2,40.13,0.00,0.00,0.00,6,0,0,Yes
 Zone Information, THERMAL ZONE: F1 RETAIL N-NW,0.0,0.00,0.00,0.00,15.76,37.66,0.54,1,1,1,0.00,30.78,28.96,47.24,0.00,3.05,3.05,1694.76,TARP,DOE-2,556.02,149.57,134.62,14.96,21,5,0,Yes
 Zone Information, THERMAL ZONE: F1 RETAIL NE,0.0,0.00,0.00,0.00,43.89,38.10,0.58,1,1,1,32.92,54.86,28.96,47.24,0.00,3.05,3.05,1223.29,TARP,DOE-2,401.34,122.63,110.37,12.26,12,4,0,Yes
 Zone Information, THERMAL ZONE: F1 RETAIL SE,0.0,0.00,0.00,0.00,45.72,7.32,0.65,1,1,1,36.58,54.86,0.00,14.63,0.00,3.05,3.05,815.53,TARP,DOE-2,267.56,144.93,130.44,14.49,9,5,0,Yes
 Zone Information, THERMAL ZONE: F1 RETAIL SW,0.0,0.00,0.00,0.00,9.51,11.72,0.59,1,1,1,0.00,18.29,0.00,23.77,0.00,3.05,3.05,1253.87,TARP,DOE-2,411.37,195.10,175.59,19.51,14,7,0,Yes
 Zone Information, THERMAL ZONE: F2-4 1-BED CORE EAST,0.0,0.00,0.00,0.00,40.23,14.63,3.87,1,3,1,36.58,43.89,5.49,23.77,3.05,6.10,3.05,407.76,TARP,DOE-2,133.78,55.74,41.79,13.95,11,2,0,Yes
 Zone Information, THERMAL ZONE: F2-4 1-BED CORE N,0.0,0.00,0.00,0.00,25.60,31.39,3.96,1,3,1,21.95,29.26,26.82,35.97,3.05,6.10,3.05,203.88,TARP,DOE-2,66.89,22.30,16.72,5.57,9,1,0,Yes
 Zone Information, THERMAL ZONE: F2-4 1-BED CORE WEST,0.0,0.00,0.00,0.00,14.47,14.87,3.87,1,3,1,10.97,18.29,5.49,23.77,3.05,6.10,3.05,407.76,TARP,DOE-2,133.78,55.74,41.79,13.95,11,2,0,Yes
 Zone Information, THERMAL ZONE: F2-4 1-BED NORTH,0.0,0.00,0.00,0.00,27.43,42.52,3.73,1,3,1,9.14,45.72,37.80,47.24,3.05,6.10,3.05,1053.39,TARP,DOE-2,345.60,111.48,83.61,27.87,22,5,0,Yes
 Zone Information, THERMAL ZONE: F2-4 2-BED CORE NE-NW,0.0,0.00,0.00,0.00,27.43,31.39,3.89,1,3,1,10.97,43.89,26.82,35.97,3.05,6.10,3.05,611.64,TARP,DOE-2,200.67,22.30,16.79,5.50,19,2,0,Yes
 Zone Information, THERMAL ZONE: F2-4 2-BED EAST,0.0,0.00,0.00,0.00,50.29,16.46,3.75,1,3,1,45.72,54.86,0.00,32.92,3.05,6.10,3.05,917.47,TARP,DOE-2,301.01,128.21,96.09,32.12,17,4,0,Yes
 Zone Information, THERMAL ZONE: F2-4 2-BED WEST,0.0,0.00,0.00,0.00,4.57,16.46,3.75,1,3,1,0.00,9.14,0.00,32.92,3.05,6.10,3.05,917.47,TARP,DOE-2,301.01,128.21,96.09,32.12,18,4,0,Yes
 Zone Information, THERMAL ZONE: F2-4 3-BED NE,0.0,0.00,0.00,0.00,50.29,40.08,3.84,1,3,1,45.72,54.86,32.92,47.24,3.05,6.10,3.05,399.27,TARP,DOE-2,130.99,71.54,53.60,17.93,7,2,0,Yes
 Zone Information, THERMAL ZONE: F2-4 3-BED NW,0.0,0.00,0.00,0.00,4.57,40.08,3.84,1,3,1,0.00,9.14,32.92,47.24,3.05,6.10,3.05,399.27,TARP,DOE-2,130.99,71.54,53.60,17.93,7,2,0,Yes
 Zone Information, THERMAL ZONE: F2-4 CORRIDOR,0.0,0.00,0.00,0.00,27.73,26.69,4.18,1,3,1,9.14,45.72,5.49,37.80,3.05,6.10,3.05,781.54,TARP,DOE-2,256.41,29.73,22.38,7.35,62,3,0,Yes
 Zone Information, THERMAL ZONE: F2-4 STUDIO SE,0.0,0.00,0.00,0.00,41.15,2.74,4.02,1,3,1,36.58,45.72,0.00,5.49,3.05,6.10,3.05,152.91,TARP,DOE-2,50.17,44.59,33.45,11.15,6,2,0,Yes
 Zone Information, THERMAL ZONE: F2-4 STUDIO SW,0.0,0.00,0.00,0.00,13.72,2.74,4.02,1,3,1,9.14,18.29,0.00,5.49,3.05,6.10,3.05,152.91,TARP,DOE-2,50.17,44.59,33.45,11.15,6,2,0,Yes
 Zone Information, THERMAL ZONE: F5 1-BED CORE EAST,0.0,0.00,0.00,0.00,40.23,14.63,13.72,1,1,1,36.58,43.89,5.49,23.77,12.19,15.24,3.05,407.76,TARP,DOE-2,133.78,55.74,41.79,13.95,11,2,0,Yes
 Zone Information, THERMAL ZONE: F5 1-BED CORE N,0.0,0.00,0.00,0.00,25.60,31.39,13.72,1,1,1,21.95,29.26,26.82,35.97,12.19,15.24,3.05,203.88,TARP,DOE-2,66.89,22.30,16.72,5.57,9,1,0,Yes
 Zone Information, THERMAL ZONE: F5 1-BED CORE WEST,0.0,0.00,0.00,0.00,14.63,14.63,13.72,1,1,1,10.97,18.29,5.49,23.77,12.19,15.24,3.05,407.76,TARP,DOE-2,133.78,55.74,41.79,13.95,11,2,0,Yes
 Zone Information, THERMAL ZONE: F5 1-BED NORTH,0.0,0.00,0.00,0.00,27.43,42.52,13.72,1,1,1,9.14,45.72,37.80,47.24,12.19,15.24,3.05,1053.39,TARP,DOE-2,345.60,111.48,83.61,27.87,22,5,0,Yes
 Zone Information, THERMAL ZONE: F5 2-BED CORE NE-NW,0.0,0.00,0.00,0.00,27.43,31.39,13.72,1,1,1,10.97,43.89,26.82,35.97,12.19,15.24,3.05,611.64,TARP,DOE-2,200.67,22.30,16.79,5.50,17,2,0,Yes
 Zone Information, THERMAL ZONE: F5 2-BED EAST,0.0,0.00,0.00,0.00,50.29,16.46,13.72,1,1,1,45.72,54.86,0.00,32.92,12.19,15.24,3.05,917.47,TARP,DOE-2,301.01,128.21,96.09,32.12,15,4,0,Yes
 Zone Information, THERMAL ZONE: F5 2-BED WEST,0.0,0.00,0.00,0.00,4.57,16.46,13.72,1,1,1,0.00,9.14,0.00,32.92,12.19,15.24,3.05,917.47,TARP,DOE-2,301.01,128.21,96.09,32.12,15,4,0,Yes
 Zone Information, THERMAL ZONE: F5 3-BED NE,0.0,0.00,0.00,0.00,50.29,40.08,13.72,1,1,1,45.72,54.86,32.92,47.24,12.19,15.24,3.05,399.27,TARP,DOE-2,130.99,71.54,53.60,17.93,7,2,0,Yes
 Zone Information, THERMAL ZONE: F5 3-BED NW,0.0,0.00,0.00,0.00,4.57,40.08,13.72,1,1,1,0.00,9.14,32.92,47.24,12.19,15.24,3.05,399.27,TARP,DOE-2,130.99,71.54,53.60,17.93,7,2,0,Yes
 Zone Information, THERMAL ZONE: F5 CORRIDOR,0.0,0.00,0.00,0.00,28.00,26.22,13.72,1,1,1,9.14,45.72,5.49,37.80,12.19,15.24,3.05,781.54,TARP,DOE-2,256.41,29.73,22.38,7.35,55,3,0,Yes
 Zone Information, THERMAL ZONE: F5 STUDIO SE,0.0,0.00,0.00,0.00,41.15,2.74,13.72,1,1,1,36.58,45.72,0.00,5.49,12.19,15.24,3.05,152.91,TARP,DOE-2,50.17,44.59,33.45,11.15,7,2,0,Yes
 Zone Information, THERMAL ZONE: F5 STUDIO SW,0.0,0.00,0.00,0.00,13.72,2.74,13.72,1,1,1,9.14,18.29,0.00,5.49,12.19,15.24,3.05,152.91,TARP,DOE-2,50.17,44.59,33.45,11.15,7,2,0,Yes
 Zone Information, THERMAL ZONE: PARKING GARAGE,0.0,0.00,0.00,0.00,27.54,23.62,-3.05,1,1,1,0.00,54.86,0.00,47.24,-6.10,0.00,6.10,15800.80,TARP,DOE-2,2591.99,0.00,0.00,0.00,29,0,0,Yes
! <Zone Internal Gains Nominal>,Zone Name, Floor Area {m2},# Occupants,Area per Occupant {m2/person},Occupant per Area {person/m2},Interior Lighting {W/m2},Electric Load {W/m2},Gas Load {W/m2},Other Load {W/m2},Hot Water Eq {W/m2},Steam Equipment {W/m2},Sum Loads per Area {W/m2},Outdoor Controlled Baseboard Heat
 Zone Internal Gains Nominal, THERMAL ZONE: F1 BUSINESS CENTER,33.45,12.0,2.787,0.359,9.149,10.764,0.000,0.000,0.000,0.000,19.913,No
 Zone Internal Gains Nominal, THERMAL ZONE: F1 CORRIDOR,178.37,9.3,19.103,5.235E-002,6.172,1.261,0.000,0.000,0.000,0.000,7.434,No
 Zone Internal Gains Nominal, THERMAL ZONE: F1 FITNESS CENTER,83.61,9.0,9.290,0.108,5.382,5.382,0.000,0.000,0.000,0.000,10.764,No
 Zone Internal Gains Nominal, THERMAL ZONE: F1 LEASING OFFICE,32.05,1.7,18.581,5.382E-002,6.997,16.146,0.000,0.000,0.000,0.000,23.142,No
 Zone Internal Gains Nominal, THERMAL ZONE: F1 LOUNGE,97.55,35.0,2.787,0.359,6.997,10.764,0.000,0.000,0.000,0.000,17.760,No
 Zone Internal Gains Nominal, THERMAL ZONE: F1 MECHANICAL ROOM,40.13,0.6,61.935,1.615E-002,4.306,32.292,0.000,0.000,0.000,0.000,36.597,No
 Zone Internal Gains Nominal, THERMAL ZONE: F1 RETAIL N-NW,556.02,49.9,11.146,8.972E-002,10.764,10.764,0.000,0.000,0.000,0.000,21.528,No
 Zone Internal Gains Nominal, THERMAL ZONE: F1 RETAIL NE,401.34,36.0,11.146,8.972E-002,10.764,10.764,0.000,0.000,0.000,0.000,21.528,No
 Zone Internal Gains Nominal, THERMAL ZONE: F1 RETAIL SE,267.56,24.0,11.146,8.972E-002,10.764,10.764,0.000,0.000,0.000,0.000,21.528,No
 Zone Internal Gains Nominal, THERMAL ZONE: F1 RETAIL SW,411.37,36.9,11.146,8.972E-002,10.764,10.764,0.000,0.000,0.000,0.000,21.528,No
 Zone Internal Gains Nominal, THERMAL ZONE: F2-4 1-BED CORE EAST,133.78,4.0,33.445,2.990E-002,5.382,5.382,2.153,0.000,0.000,0.000,12.917,No
 Zone Internal Gains Nominal, THERMAL ZONE: F2-4 1-BED CORE N,66.89,2.0,33.445,2.990E-002,5.382,5.382,2.153,0.000,0.000,0.000,12.917,No
 Zone Internal Gains Nominal, THERMAL ZONE: F2-4 1-BED CORE WEST,133.78,4.0,33.445,2.990E-002,5.382,5.382,2.153,0.000,0.000,0.000,12.917,No
 Zone Internal Gains Nominal, THERMAL ZONE: F2-4 1-BED NORTH,345.60,10.0,34.560,2.894E-002,5.382,5.382,2.153,0.000,0.000,0.000,12.917,No
 Zone Internal Gains Nominal, THERMAL ZONE: F2-4 2-BED CORE NE-NW,200.67,6.0,33.445,2.990E-002,5.382,5.382,2.153,0.000,0.000,0.000,12.917,No
 Zone Internal Gains Nominal, THERMAL ZONE: F2-4 2-BED EAST,301.01,9.0,33.445,2.990E-002,5.382,5.382,2.153,0.000,0.000,0.000,12.917,No
 Zone Internal Gains Nominal, THERMAL ZONE: F2-4 2-BED WEST,301.01,9.0,33.445,2.990E-002,5.382,5.382,2.153,0.000,0.000,0.000,12.917,No
 Zone Internal Gains Nominal, THERMAL ZONE: F2-4 3-BED NE,130.99,4.0,32.748,3.054E-002,5.382,5.382,2.153,0.000,0.000,0.000,12.917,No
 Zone Internal Gains Nominal, THERMAL ZONE: F2-4 3-BED NW,130.99,4.0,32.748,3.054E-002,5.382,5.382,2.153,0.000,0.000,0.000,12.917,No
 Zone Internal Gains Nominal, THERMAL ZONE: F2-4 CORRIDOR,256.41,13.5,18.941,5.280E-002,6.154,2.983,0.154,0.000,0.000,0.000,9.292,No
 Zone Internal Gains Nominal, THERMAL ZONE: F2-4 STUDIO SE,50.17,2.0,25.084,3.987E-002,5.382,5.382,2.153,0.000,0.000,0.000,12.917,No
 Zone Internal Gains Nominal, THERMAL ZONE: F2-4 STUDIO SW,50.17,2.0,25.084,3.987E-002,5.382,5.382,2.153,0.000,0.000,0.000,12.917,No
 Zone Internal Gains Nominal, THERMAL ZONE: F5 1-BED CORE EAST,133.78,4.0,33.445,2.990E-002,5.382,5.382,2.153,0.000,0.000,0.000,12.917,No
 Zone Internal Gains Nominal, THERMAL ZONE: F5 1-BED CORE N,66.89,2.0,33.445,2.990E-002,5.382,5.382,2.153,0.000,0.000,0.000,12.917,No
 Zone Internal Gains Nominal, THERMAL ZONE: F5 1-BED CORE WEST,133.78,4.0,33.445,2.990E-002,5.382,5.382,2.153,0.000,0.000,0.000,12.917,No
 Zone Internal Gains Nominal, THERMAL ZONE: F5 1-BED NORTH,345.60,10.0,34.560,2.894E-002,5.382,5.382,2.153,0.000,0.000,0.000,12.917,No
 Zone Internal Gains Nominal, THERMAL ZONE: F5 2-BED CORE NE-NW,200.67,6.0,33.445,2.990E-002,5.382,5.382,2.153,0.000,0.000,0.000,12.917,No
 Zone Internal Gains Nominal, THERMAL ZONE: F5 2-BED EAST,301.01,9.0,33.445,2.990E-002,5.382,5.382,2.153,0.000,0.000,0.000,12.917,No
 Zone Internal Gains Nominal, THERMAL ZONE: F5 2-BED WEST,301.01,9.0,33.445,2.990E-002,5.382,5.382,2.153,0.000,0.000,0.000,12.917,No
 Zone Internal Gains Nominal, THERMAL ZONE: F5 3-BED NE,130.99,4.0,32.748,3.054E-002,5.382,5.382,2.153,0.000,0.000,0.000,12.917,No
 Zone Internal Gains Nominal, THERMAL ZONE: F5 3-BED NW,130.99,4.0,32.748,3.054E-002,5.382,5.382,2.153,0.000,0.000,0.000,12.917,No
 Zone Internal Gains Nominal, THERMAL ZONE: F5 CORRIDOR,256.41,13.5,18.941,5.280E-002,6.154,2.983,0.154,0.000,0.000,0.000,9.292,No
 Zone Internal Gains Nominal, THERMAL ZONE: F5 STUDIO SE,50.17,2.0,25.084,3.987E-002,5.382,5.382,2.153,0.000,0.000,0.000,12.917,No
 Zone Internal Gains Nominal, THERMAL ZONE: F5 STUDIO SW,50.17,2.0,25.084,3.987E-002,5.382,5.382,2.153,0.000,0.000,0.000,12.917,No
 Zone Internal Gains Nominal, THERMAL ZONE: PARKING GARAGE,2591.99,69.8,37.161,2.691E-002,1.076,0.000,0.000,0.000,0.000,0.000,1.076,No
! <People Internal Gains Nominal>,Name,Schedule Name,Zone Name,Zone Floor Area {m2},# Zone Occupants,Number of People {},People/Floor Area {person/m2},Floor Area per person {m2/person},Fraction Radiant,Fraction Convected,Sensible Fraction Calculation,Activity level,ASHRAE 55 Warnings,Carbon Dioxide Generation Rate,Nominal Minimum Number of People,Nominal Maximum Number of People
 People Internal Gains Nominal, F1 BUSINESS CENTER PEOPLE,RETAILOCCUPANCY,THERMAL ZONE: F1 BUSINESS CENTER,33.45,12.0,12.0,0.359,2.787,0.300,0.700,0.613,F1 BUSINESS CENTER PEOPLE ACTIVITY LEVEL,No,3.8200E-008,0,12
 People Internal Gains Nominal, F1 CORRIDOR PEOPLE,RETAILOCCUPANCY,THERMAL ZONE: F1 CORRIDOR,178.37,9.3,7.4,4.163E-002,24.023,0.300,0.700,0.500,F1 CORRIDOR PEOPLE ACTIVITY LEVEL,No,3.8200E-008,0,7
 People Internal Gains Nominal, F1 ELEVATOR CORE PEOPLE,RETAILOCCUPANCY,THERMAL ZONE: F1 CORRIDOR,178.37,9.3,3.8E-002,2.102E-004,4756.636,0.300,0.700,0.500,F1 ELEVATOR CORE PEOPLE ACTIVITY LEVEL,No,3.8200E-008,0,4.E-002
 People Internal Gains Nominal, F1 ELEVATOR N PEOPLE,RETAILOCCUPANCY,THERMAL ZONE: F1 CORRIDOR,178.37,9.3,3.8E-002,2.102E-004,4756.636,0.300,0.700,0.500,F1 ELEVATOR N PEOPLE ACTIVITY LEVEL,No,3.8200E-008,0,4.E-002
 People Internal Gains Nominal, F1 ELEVATOR S PEOPLE,RETAILOCCUPANCY,THERMAL ZONE: F1 CORRIDOR,178.37,9.3,3.8E-002,2.102E-004,4756.636,0.300,0.700,0.500,F1 ELEVATOR S PEOPLE ACTIVITY LEVEL,No,3.8200E-008,0,4.E-002
 People Internal Gains Nominal, F1 STAIRS E PEOPLE,RETAILOCCUPANCY,THERMAL ZONE: F1 CORRIDOR,178.37,9.3,0.9,5.046E-003,198.193,0.300,0.700,0.500,F1 STAIRS E PEOPLE ACTIVITY LEVEL,No,3.8200E-008,0,1
 People Internal Gains Nominal, F1 STAIRS W PEOPLE,RETAILOCCUPANCY,THERMAL ZONE: F1 CORRIDOR,178.37,9.3,0.9,5.046E-003,198.193,0.300,0.700,0.500,F1 STAIRS W PEOPLE ACTIVITY LEVEL,No,3.8200E-008,0,1
 People Internal Gains Nominal, F1 FITNESS CENTER PEOPLE,RETAILOCCUPANCY,THERMAL ZONE: F1 FITNESS CENTER,83.61,9.0,9.0,0.108,9.290,0.300,0.700,0.226,F1 FITNESS CENTER PEOPLE ACTIVITY LEVEL,No,3.8200E-008,0,9
 People Internal Gains Nominal, F1 LEASING OFFICE PEOPLE,RETAILOCCUPANCY,THERMAL ZONE: F1 LEASING OFFICE,32.05,1.7,1.7,5.382E-002,18.581,0.300,0.700,0.556,F1 LEASING OFFICE PEOPLE ACTIVITY LEVEL,No,3.8200E-008,0,2
 People Internal Gains Nominal, F1 LOUNGE PEOPLE,RETAILOCCUPANCY,THERMAL ZONE: F1 LOUNGE,97.55,35.0,35.0,0.359,2.787,0.300,0.700,0.500,F1 LOUNGE PEOPLE ACTIVITY LEVEL,No,3.8200E-008,0,35
 People Internal Gains Nominal, F1 MECHANICAL ROOM PEOPLE,RETAILOCCUPANCY,THERMAL ZONE: F1 MECHANICAL ROOM,40.13,0.6,0.6,1.615E-002,61.935,0.300,0.700,0.500,F1 MECHANICAL ROOM PEOPLE ACTIVITY LEVEL,No,3.8200E-008,0,1
 People Internal Gains Nominal, F1 RETAIL N CORE PEOPLE,RETAILOCCUPANCY,THERMAL ZONE: F1 RETAIL N-NW,556.02,49.9,13.9,2.496E-002,40.066,0.300,0.700,0.556,F1 RETAIL N CORE PEOPLE ACTIVITY LEVEL,No,3.8200E-008,0,14
 People Internal Gains Nominal, F1 RETAIL NW INNER CORE PEOPLE,RETAILOCCUPANCY,THERMAL ZONE: F1 RETAIL N-NW,556.02,49.9,12.0,2.159E-002,46.326,0.300,0.700,0.556,F1 RETAIL NW INNER CORE PEOPLE ACTIVITY LEVEL,No,3.8200E-008,0,12
 People Internal Gains Nominal, F1 RETAIL NW OUTER CORE PEOPLE,RETAILOCCUPANCY,THERMAL ZONE: F1 RETAIL N-NW,556.02,49.9,12.0,2.159E-002,46.326,0.300,0.700,0.556,F1 RETAIL NW OUTER CORE PEOPLE ACTIVITY LEVEL,No,3.8200E-008,0,12
 People Internal Gains Nominal, F1 RETAIL NW OUTER PEOPLE,RETAILOCCUPANCY,THERMAL ZONE: F1 RETAIL N-NW,556.02,49.9,12.0,2.159E-002,46.326,0.300,0.700,0.556,F1 RETAIL NW OUTER PEOPLE ACTIVITY LEVEL,No,3.8200E-008,0,12
 People Internal Gains Nominal, F1 RETAIL NE CORE PEOPLE,RETAILOCCUPANCY,THERMAL ZONE: F1 RETAIL NE,401.34,36.0,12.0,2.991E-002,33.438,0.300,0.700,0.556,F1 RETAIL NE CORE PEOPLE ACTIVITY LEVEL,No,3.8200E-008,0,12
 People Internal Gains Nominal, F1 RETAIL NE INNER PEOPLE,RETAILOCCUPANCY,THERMAL ZONE: F1 RETAIL NE,401.34,36.0,12.0,2.991E-002,33.438,0.300,0.700,0.556,F1 RETAIL NE INNER PEOPLE ACTIVITY LEVEL,No,3.8200E-008,0,12
 People Internal Gains Nominal, F1 RETAIL NE OUTER PEOPLE,RETAILOCCUPANCY,THERMAL ZONE: F1 RETAIL NE,401.34,36.0,12.0,2.991E-002,33.438,0.300,0.700,0.556,F1 RETAIL NE OUTER PEOPLE ACTIVITY LEVEL,No,3.8200E-008,0,12
 People Internal Gains Nominal, F1 RETAIL SE BOTTOM PEOPLE,RETAILOCCUPANCY,THERMAL ZONE: F1 RETAIL SE,267.56,24.0,12.0,4.486E-002,22.292,0.300,0.700,0.556,F1 RETAIL SE BOTTOM PEOPLE ACTIVITY LEVEL,No,3.8200E-008,0,12
 People Internal Gains Nominal, F1 RETAIL SE TOP PEOPLE,RETAILOCCUPANCY,THERMAL ZONE: F1 RETAIL SE,267.56,24.0,12.0,4.486E-002,22.292,0.300,0.700,0.556,F1 RETAIL SE TOP PEOPLE ACTIVITY LEVEL,No,3.8200E-008,0,12
 People Internal Gains Nominal, F1 RETAIL SW BOTTOM PEOPLE,RETAILOCCUPANCY,THERMAL ZONE: F1 RETAIL SW,411.37,36.9,12.0,2.918E-002,34.274,0.300,0.700,0.556,F1 RETAIL SW BOTTOM PEOPLE ACTIVITY LEVEL,No,3.8200E-008,0,12
 People Internal Gains Nominal, F1 RETAIL SW CORE PEOPLE,RETAILOCCUPANCY,THERMAL ZONE: F1 RETAIL SW,411.37,36.9,12.0,2.918E-002,34.274,0.300,0.700,0.556,F1 RETAIL SW CORE PEOPLE ACTIVITY LEVEL,No,3.8200E-008,0,12
 People Internal Gains Nominal, F1 RETAIL SW TOP PEOPLE,RETAILOCCUPANCY,THERMAL ZONE: F1 RETAIL SW,411.37,36.9,12.9,3.136E-002,31.883,0.300,0.700,0.556,F1 RETAIL SW TOP PEOPLE ACTIVITY LEVEL,No,3.8200E-008,0,13
 People Internal Gains Nominal, F2-4 1-BED CORE NE PEOPLE,RESIDENTIALLIVINGOCCUPANCY,THERMAL ZONE: F2-4 1-BED CORE EAST,133.78,4.0,2.0,1.495E-002,66.890,0.300,0.700,0.613,F2-4 1-BED CORE NE PEOPLE ACTIVITY LEVEL,No,3.8200E-008,0,2
 People Internal Gains Nominal, F2-4 1-BED CORE SE PEOPLE,RESIDENTIALLIVINGOCCUPANCY,THERMAL ZONE: F2-4 1-BED CORE EAST,133.78,4.0,2.0,1.495E-002,66.890,0.300,0.700,0.613,F2-4 1-BED CORE SE PEOPLE ACTIVITY LEVEL,No,3.8200E-008,0,2
 People Internal Gains Nominal, F2-4 1-BED CORE N PEOPLE,RESIDENTIALLIVINGOCCUPANCY,THERMAL ZONE: F2-4 1-BED CORE N,66.89,2.0,2.0,2.990E-002,33.445,0.300,0.700,0.613,F2-4 1-BED CORE N PEOPLE ACTIVITY LEVEL,No,3.8200E-008,0,2
 People Internal Gains Nominal, F2-4 1-BED CORE NW PEOPLE,RESIDENTIALLIVINGOCCUPANCY,THERMAL ZONE: F2-4 1-BED CORE WEST,133.78,4.0,2.0,1.495E-002,66.890,0.300,0.700,0.613,F2-4 1-BED CORE NW PEOPLE ACTIVITY LEVEL,No,3.8200E-008,0,2
 People Internal Gains Nominal, F2-4 1-BED CORE SW PEOPLE,RESIDENTIALLIVINGOCCUPANCY,THERMAL ZONE: F2-4 1-BED CORE WEST,133.78,4.0,2.0,1.495E-002,66.890,0.300,0.700,0.613,F2-4 1-BED CORE SW PEOPLE ACTIVITY LEVEL,No,3.8200E-008,0,2
 People Internal Gains Nominal, F2-4 1-BED N PEOPLE,RESIDENTIALLIVINGOCCUPANCY,THERMAL ZONE: F2-4 1-BED NORTH,345.60,10.0,2.0,5.787E-003,172.800,0.300,0.700,0.613,F2-4 1-BED N PEOPLE ACTIVITY LEVEL,No,3.8200E-008,0,2
 People Internal Gains Nominal, F2-4 1-BED NE CORE PEOPLE,RESIDENTIALLIVINGOCCUPANCY,THERMAL ZONE: F2-4 1-BED NORTH,345.60,10.0,2.0,5.787E-003,172.800,0.300,0.700,0.613,F2-4 1-BED NE CORE PEOPLE ACTIVITY LEVEL,No,3.8200E-008,0,2
 People Internal Gains Nominal, F2-4 1-BED NE OUTER PEOPLE,RESIDENTIALLIVINGOCCUPANCY,THERMAL ZONE: F2-4 1-BED NORTH,345.60,10.0,2.0,5.787E-003,172.800,0.300,0.700,0.613,F2-4 1-BED NE OUTER PEOPLE ACTIVITY LEVEL,No,3.8200E-008,0,2
 People Internal Gains Nominal, F2-4 1-BED NW CORE PEOPLE,RESIDENTIALLIVINGOCCUPANCY,THERMAL ZONE: F2-4 1-BED NORTH,345.60,10.0,2.0,5.787E-003,172.800,0.300,0.700,0.613,F2-4 1-BED NW CORE PEOPLE ACTIVITY LEVEL,No,3.8200E-008,0,2
 People Internal Gains Nominal, F2-4 1-BED NW OUTER PEOPLE,RESIDENTIALLIVINGOCCUPANCY,THERMAL ZONE: F2-4 1-BED NORTH,345.60,10.0,2.0,5.787E-003,172.800,0.300,0.700,0.613,F2-4 1-BED NW OUTER PEOPLE ACTIVITY LEVEL,No,3.8200E-008,0,2
 People Internal Gains Nominal, F2-4 2-BED CORE NE PEOPLE,RESIDENTIALLIVINGOCCUPANCY,THERMAL ZONE: F2-4 2-BED CORE NE-NW,200.67,6.0,3.0,1.495E-002,66.890,0.300,0.700,0.613,F2-4 2-BED CORE NE PEOPLE ACTIVITY LEVEL,No,3.8200E-008,0,3
 People Internal Gains Nominal, F2-4 2-BED CORE NW PEOPLE,RESIDENTIALLIVINGOCCUPANCY,THERMAL ZONE: F2-4 2-BED CORE NE-NW,200.67,6.0,3.0,1.495E-002,66.890,0.300,0.700,0.613,F2-4 2-BED CORE NW PEOPLE ACTIVITY LEVEL,No,3.8200E-008,0,3
 People Internal Gains Nominal, F2-4 2-BED NE PEOPLE,RESIDENTIALLIVINGOCCUPANCY,THERMAL ZONE: F2-4 2-BED EAST,301.01,9.0,3.0,9.967E-003,100.335,0.300,0.700,0.613,F2-4 2-BED NE PEOPLE ACTIVITY LEVEL,No,3.8200E-008,0,3
 People Internal Gains Nominal, F2-4 2-BED SE CORE PEOPLE,RESIDENTIALLIVINGOCCUPANCY,THERMAL ZONE: F2-4 2-BED EAST,301.01,9.0,3.0,9.967E-003,100.335,0.300,0.700,0.613,F2-4 2-BED SE CORE PEOPLE ACTIVITY LEVEL,No,3.8200E-008,0,3
 People Internal Gains Nominal, F2-4 2-BED SE PEOPLE,RESIDENTIALLIVINGOCCUPANCY,THERMAL ZONE: F2-4 2-BED EAST,301.01,9.0,3.0,9.967E-003,100.335,0.300,0.700,0.613,F2-4 2-BED SE PEOPLE ACTIVITY LEVEL,No,3.8200E-008,0,3
 People Internal Gains Nominal, F2-4 2-BED NW PEOPLE,RESIDENTIALLIVINGOCCUPANCY,THERMAL ZONE: F2-4 2-BED WEST,301.01,9.0,3.0,9.967E-003,100.335,0.300,0.700,0.613,F2-4 2-BED NW PEOPLE ACTIVITY LEVEL,No,3.8200E-008,0,3
 People Internal Gains Nominal, F2-4 2-BED SW CORE PEOPLE,RESIDENTIALLIVINGOCCUPANCY,THERMAL ZONE: F2-4 2-BED WEST,301.01,9.0,3.0,9.967E-003,100.335,0.300,0.700,0.613,F2-4 2-BED SW CORE PEOPLE ACTIVITY LEVEL,No,3.8200E-008,0,3
 People Internal Gains Nominal, F2-4 2-BED SW PEOPLE,RESIDENTIALLIVINGOCCUPANCY,THERMAL ZONE: F2-4 2-BED WEST,301.01,9.0,3.0,9.967E-003,100.335,0.300,0.700,0.613,F2-4 2-BED SW PEOPLE ACTIVITY LEVEL,No,3.8200E-008,0,3
 People Internal Gains Nominal, F2-4 3-BED NE PEOPLE,RESIDENTIALLIVINGOCCUPANCY,THERMAL ZONE: F2-4 3-BED NE,130.99,4.0,4.0,3.054E-002,32.748,0.300,0.700,0.613,F2-4 3-BED NE PEOPLE ACTIVITY LEVEL,No,3.8200E-008,0,4
 People Internal Gains Nominal, F2-4 3-BED NW PEOPLE,RESIDENTIALLIVINGOCCUPANCY,THERMAL ZONE: F2-4 3-BED NW,130.99,4.0,4.0,3.054E-002,32.748,0.300,0.700,0.613,F2-4 3-BED NW PEOPLE ACTIVITY LEVEL,No,3.8200E-008,0,4
 People Internal Gains Nominal, F2-4 CORRIDOR PEOPLE,OFFICEOCCUPANCY,THERMAL ZONE: F2-4 CORRIDOR,256.41,13.5,10.7,4.183E-002,23.908,0.300,0.700,0.500,F2-4 CORRIDOR PEOPLE ACTIVITY LEVEL,No,3.8200E-008,0,11
 People Internal Gains Nominal, F2-4 ELEVATOR CORE PEOPLE,OFFICEOCCUPANCY,THERMAL ZONE: F2-4 CORRIDOR,256.41,13.5,3.8E-002,1.462E-004,6837.664,0.300,0.700,0.500,F2-4 ELEVATOR CORE PEOPLE ACTIVITY LEVEL,No,3.8200E-008,0,4.E-002
 People Internal Gains Nominal, F2-4 ELEVATOR N PEOPLE,OFFICEOCCUPANCY,THERMAL ZONE: F2-4 CORRIDOR,256.41,13.5,3.8E-002,1.462E-004,6837.664,0.300,0.700,0.500,F2-4 ELEVATOR N PEOPLE ACTIVITY LEVEL,No,3.8200E-008,0,4.E-002
 People Internal Gains Nominal, F2-4 ELEVATOR S PEOPLE,OFFICEOCCUPANCY,THERMAL ZONE: F2-4 CORRIDOR,256.41,13.5,3.8E-002,1.462E-004,6837.664,0.300,0.700,0.500,F2-4 ELEVATOR S PEOPLE ACTIVITY LEVEL,No,3.8200E-008,0,4.E-002
 People Internal Gains Nominal, F2-4 LAUNDRY PEOPLE,OFFICEOCCUPANCY,THERMAL ZONE: F2-4 CORRIDOR,256.41,13.5,0.9,3.510E-003,284.903,0.300,0.700,0.500,F2-4 LAUNDRY PEOPLE ACTIVITY LEVEL,No,3.8200E-008,0,1
 People Internal Gains Nominal, F2-4 STAIR E PEOPLE,OFFICEOCCUPANCY,THERMAL ZONE: F2-4 CORRIDOR,256.41,13.5,0.9,3.510E-003,284.903,0.300,0.700,0.500,F2-4 STAIR E PEOPLE ACTIVITY LEVEL,No,3.8200E-008,0,1
 People Internal Gains Nominal, F2-4 STAIR W PEOPLE,OFFICEOCCUPANCY,THERMAL ZONE: F2-4 CORRIDOR,256.41,13.5,0.9,3.510E-003,284.903,0.300,0.700,0.500,F2-4 STAIR W PEOPLE ACTIVITY LEVEL,No,3.8200E-008,0,1
 People Internal Gains Nominal, F2-4 STUDIO SE PEOPLE,RESIDENTIALLIVINGOCCUPANCY,THERMAL ZONE: F2-4 STUDIO SE,50.17,2.0,2.0,3.987E-002,25.084,0.300,0.700,0.613,F2-4 STUDIO SE PEOPLE ACTIVITY LEVEL,No,3.8200E-008,0,2
 People Internal Gains Nominal, F2-4 STUDIO SW PEOPLE,RESIDENTIALLIVINGOCCUPANCY,THERMAL ZONE: F2-4 STUDIO SW,50.17,2.0,2.0,3.987E-002,25.084,0.300,0.700,0.613,F2-4 STUDIO SW PEOPLE ACTIVITY LEVEL,No,3.8200E-008,0,2
 People Internal Gains Nominal, F5 1-BED CORE NE PEOPLE,RESIDENTIALLIVINGOCCUPANCY,THERMAL ZONE: F5 1-BED CORE EAST,133.78,4.0,2.0,1.495E-002,66.890,0.300,0.700,0.613,F5 1-BED CORE NE PEOPLE ACTIVITY LEVEL,No,3.8200E-008,0,2
 People Internal Gains Nominal, F5 1-BED CORE SE PEOPLE,RESIDENTIALLIVINGOCCUPANCY,THERMAL ZONE: F5 1-BED CORE EAST,133.78,4.0,2.0,1.495E-002,66.890,0.300,0.700,0.613,F5 1-BED CORE SE PEOPLE ACTIVITY LEVEL,No,3.8200E-008,0,2
 People Internal Gains Nominal, F5 1-BED CORE N PEOPLE,RESIDENTIALLIVINGOCCUPANCY,THERMAL ZONE: F5 1-BED CORE N,66.89,2.0,2.0,2.990E-002,33.445,0.300,0.700,0.613,F5 1-BED CORE N PEOPLE ACTIVITY LEVEL,No,3.8200E-008,0,2
 People Internal Gains Nominal, F5 1-BED CORE NW PEOPLE,RESIDENTIALLIVINGOCCUPANCY,THERMAL ZONE: F5 1-BED CORE WEST,133.78,4.0,2.0,1.495E-002,66.890,0.300,0.700,0.613,F5 1-BED CORE NW PEOPLE ACTIVITY LEVEL,No,3.8200E-008,0,2
 People Internal Gains Nominal, F5 1-BED CORE SW PEOPLE,RESIDENTIALLIVINGOCCUPANCY,THERMAL ZONE: F5 1-BED CORE WEST,133.78,4.0,2.0,1.495E-002,66.890,0.300,0.700,0.613,F5 1-BED CORE SW PEOPLE ACTIVITY LEVEL,No,3.8200E-008,0,2
 People Internal Gains Nominal, F5 1-BED N PEOPLE,RESIDENTIALLIVINGOCCUPANCY,THERMAL ZONE: F5 1-BED NORTH,345.60,10.0,2.0,5.787E-003,172.800,0.300,0.700,0.613,F5 1-BED N PEOPLE ACTIVITY LEVEL,No,3.8200E-008,0,2
 People Internal Gains Nominal, F5 1-BED NE CORE PEOPLE,RESIDENTIALLIVINGOCCUPANCY,THERMAL ZONE: F5 1-BED NORTH,345.60,10.0,2.0,5.787E-003,172.800,0.300,0.700,0.613,F5 1-BED NE CORE PEOPLE ACTIVITY LEVEL,No,3.8200E-008,0,2
 People Internal Gains Nominal, F5 1-BED NE OUTER PEOPLE,RESIDENTIALLIVINGOCCUPANCY,THERMAL ZONE: F5 1-BED NORTH,345.60,10.0,2.0,5.787E-003,172.800,0.300,0.700,0.613,F5 1-BED NE OUTER PEOPLE ACTIVITY LEVEL,No,3.8200E-008,0,2
 People Internal Gains Nominal, F5 1-BED NW CORE PEOPLE,RESIDENTIALLIVINGOCCUPANCY,THERMAL ZONE: F5 1-BED NORTH,345.60,10.0,2.0,5.787E-003,172.800,0.300,0.700,0.613,F5 1-BED NW CORE PEOPLE ACTIVITY LEVEL,No,3.8200E-008,0,2
 People Internal Gains Nominal, F5 1-BED NW OUTER PEOPLE,RESIDENTIALLIVINGOCCUPANCY,THERMAL ZONE: F5 1-BED NORTH,345.60,10.0,2.0,5.787E-003,172.800,0.300,0.700,0.613,F5 1-BED NW OUTER PEOPLE ACTIVITY LEVEL,No,3.8200E-008,0,2
 People Internal Gains Nominal, F5 2-BED CORE NE PEOPLE,RESIDENTIALLIVINGOCCUPANCY,THERMAL ZONE: F5 2-BED CORE NE-NW,200.67,6.0,3.0,1.495E-002,66.890,0.300,0.700,0.613,F5 2-BED CORE NE PEOPLE ACTIVITY LEVEL,No,3.8200E-008,0,3
 People Internal Gains Nominal, F5 2-BED CORE NW PEOPLE,RESIDENTIALLIVINGOCCUPANCY,THERMAL ZONE: F5 2-BED CORE NE-NW,200.67,6.0,3.0,1.495E-002,66.890,0.300,0.700,0.613,F5 2-BED CORE NW PEOPLE ACTIVITY LEVEL,No,3.8200E-008,0,3
 People Internal Gains Nominal, F5 2-BED NE PEOPLE,RESIDENTIALLIVINGOCCUPANCY,THERMAL ZONE: F5 2-BED EAST,301.01,9.0,3.0,9.967E-003,100.335,0.300,0.700,0.613,F5 2-BED NE PEOPLE ACTIVITY LEVEL,No,3.8200E-008,0,3
 People Internal Gains Nominal, F5 2-BED SE CORE PEOPLE,RESIDENTIALLIVINGOCCUPANCY,THERMAL ZONE: F5 2-BED EAST,301.01,9.0,3.0,9.967E-003,100.335,0.300,0.700,0.613,F5 2-BED SE CORE PEOPLE ACTIVITY LEVEL,No,3.8200E-008,0,3
 People Internal Gains Nominal, F5 2-BED SE PEOPLE,RESIDENTIALLIVINGOCCUPANCY,THERMAL ZONE: F5 2-BED EAST,301.01,9.0,3.0,9.967E-003,100.335,0.300,0.700,0.613,F5 2-BED SE PEOPLE ACTIVITY LEVEL,No,3.8200E-008,0,3
 People Internal Gains Nominal, F5 2-BED NW PEOPLE,RESIDENTIALLIVINGOCCUPANCY,THERMAL ZONE: F5 2-BED WEST,301.01,9.0,3.0,9.967E-003,100.335,0.300,0.700,0.613,F5 2-BED NW PEOPLE ACTIVITY LEVEL,No,3.8200E-008,0,3
 People Internal Gains Nominal, F5 2-BED SW CORE PEOPLE,RESIDENTIALLIVINGOCCUPANCY,THERMAL ZONE: F5 2-BED WEST,301.01,9.0,3.0,9.967E-003,100.335,0.300,0.700,0.613,F5 2-BED SW CORE PEOPLE ACTIVITY LEVEL,No,3.8200E-008,0,3
 People Internal Gains Nominal, F5 2-BED SW PEOPLE,RESIDENTIALLIVINGOCCUPANCY,THERMAL ZONE: F5 2-BED WEST,301.01,9.0,3.0,9.967E-003,100.335,0.300,0.700,0.613,F5 2-BED SW PEOPLE ACTIVITY LEVEL,No,3.8200E-008,0,3
 People Internal Gains Nominal, F5 3-BED NE PEOPLE,RESIDENTIALLIVINGOCCUPANCY,THERMAL ZONE: F5 3-BED NE,130.99,4.0,4.0,3.054E-002,32.748,0.300,0.700,0.613,F5 3-BED NE PEOPLE ACTIVITY LEVEL,No,3.8200E-008,0,4
 People Internal Gains Nominal, F5 3-BED NW PEOPLE,RESIDENTIALLIVINGOCCUPANCY,THERMAL ZONE: F5 3-BED NW,130.99,4.0,4.0,3.054E-002,32.748,0.300,0.700,0.613,F5 3-BED NW PEOPLE ACTIVITY LEVEL,No,3.8200E-008,0,4
 People Internal Gains Nominal, F5 CORRIDOR PEOPLE,OFFICEOCCUPANCY,THERMAL ZONE: F5 CORRIDOR,256.41,13.5,10.7,4.183E-002,23.908,0.300,0.700,0.500,F5 CORRIDOR PEOPLE ACTIVITY LEVEL,No,3.8200E-008,0,11
 People Internal Gains Nominal, F5 ELEVATOR CORE PEOPLE,OFFICEOCCUPANCY,THERMAL ZONE: F5 CORRIDOR,256.41,13.5,3.8E-002,1.462E-004,6837.664,0.300,0.700,0.500,F5 ELEVATOR CORE PEOPLE ACTIVITY LEVEL,No,3.8200E-008,0,4.E-002
 People Internal Gains Nominal, F5 ELEVATOR N PEOPLE,OFFICEOCCUPANCY,THERMAL ZONE: F5 CORRIDOR,256.41,13.5,3.8E-002,1.462E-004,6837.664,0.300,0.700,0.500,F5 ELEVATOR N PEOPLE ACTIVITY LEVEL,No,3.8200E-008,0,4.E-002
 People Internal Gains Nominal, F5 ELEVATOR S PEOPLE,OFFICEOCCUPANCY,THERMAL ZONE: F5 CORRIDOR,256.41,13.5,3.8E-002,1.462E-004,6837.664,0.300,0.700,0.500,F5 ELEVATOR S PEOPLE ACTIVITY LEVEL,No,3.8200E-008,0,4.E-002
 People Internal Gains Nominal, F5 LAUNDRY PEOPLE,OFFICEOCCUPANCY,THERMAL ZONE: F5 CORRIDOR,256.41,13.5,0.9,3.510E-003,284.903,0.300,0.700,0.500,F5 LAUNDRY PEOPLE ACTIVITY LEVEL,No,3.8200E-008,0,1
 People Internal Gains Nominal, F5 STAIR E PEOPLE,OFFICEOCCUPANCY,THERMAL ZONE: F5 CORRIDOR,256.41,13.5,0.9,3.510E-003,284.903,0.300,0.700,0.500,F5 STAIR E PEOPLE ACTIVITY LEVEL,No,3.8200E-008,0,1
 People Internal Gains Nominal, F5 STAIR W PEOPLE,OFFICEOCCUPANCY,THERMAL ZONE: F5 CORRIDOR,256.41,13.5,0.9,3.510E-003,284.903,0.300,0.700,0.500,F5 STAIR W PEOPLE ACTIVITY LEVEL,No,3.8200E-008,0,1
 People Internal Gains Nominal, F5 STUDIO SE PEOPLE,RESIDENTIALLIVINGOCCUPANCY,THERMAL ZONE: F5 STUDIO SE,50.17,2.0,2.0,3.987E-002,25.084,0.300,0.700,0.613,F5 STUDIO SE PEOPLE ACTIVITY LEVEL,No,3.8200E-008,0,2
 People Internal Gains Nominal, F5 STUDIO SW PEOPLE,RESIDENTIALLIVINGOCCUPANCY,THERMAL ZONE: F5 STUDIO SW,50.17,2.0,2.0,3.987E-002,25.084,0.300,0.700,0.613,F5 STUDIO SW PEOPLE ACTIVITY LEVEL,No,3.8200E-008,0,2
 People Internal Gains Nominal, PARKING GARAGE PEOPLE,PARKINGOCCUPANCY,THERMAL ZONE: PARKING GARAGE,2591.99,69.8,69.8,2.691E-002,37.161,0.300,0.700,0.556,PARKING GARAGE PEOPLE ACTIVITY LEVEL,No,3.8200E-008,0,70
! <Lights Internal Gains Nominal>,Name,Schedule Name,Zone Name,Zone Floor Area {m2},# Zone Occupants,Lighting Level {W},Lights/Floor Area {W/m2},Lights per person {W/person},Fraction Return Air,Fraction Radiant,Fraction Short Wave,Fraction Convected,Fraction Replaceable,End-Use Category,Nominal Minimum Lighting Level {W},Nominal Maximum Lighting Level {W}
 Lights Internal Gains Nominal, F1 BUSINESS CENTER REGULATED LIGHTS,RETAILLIGHTS,THERMAL ZONE: F1 BUSINESS CENTER,33.45,12.0,306.000,9.149,25.499,0.000,0.580,0.000,0.420,1.000,ComplianceLtg,0.000,306.000
 Lights Internal Gains Nominal, F1 CORRIDOR REGULATED LIGHTS,RETAILLIGHTS,THERMAL ZONE: F1 CORRIDOR,178.37,9.3,891.000,4.995,95.422,0.000,0.580,0.000,0.420,1.000,ComplianceLtg,0.000,891.000
 Lights Internal Gains Nominal, F1 ELEVATOR CORE REGULATED LIGHTS,RETAILLIGHTS,THERMAL ZONE: F1 CORRIDOR,178.37,9.3,10.000,5.606E-002,1.071,0.000,0.580,0.000,0.420,1.000,ComplianceLtg,0.000,10.000
 Lights Internal Gains Nominal, F1 ELEVATOR N REGULATED LIGHTS,RETAILLIGHTS,THERMAL ZONE: F1 CORRIDOR,178.37,9.3,10.000,5.606E-002,1.071,0.000,0.580,0.000,0.420,1.000,ComplianceLtg,0.000,10.000
 Lights Internal Gains Nominal, F1 ELEVATOR S REGULATED LIGHTS,RETAILLIGHTS,THERMAL ZONE: F1 CORRIDOR,178.37,9.3,10.000,5.606E-002,1.071,0.000,0.580,0.000,0.420,1.000,ComplianceLtg,0.000,10.000
 Lights Internal Gains Nominal, F1 STAIRS E REGULATED LIGHTS,RETAILLIGHTS,THERMAL ZONE: F1 CORRIDOR,178.37,9.3,90.000,0.505,9.639,0.000,0.580,0.000,0.420,1.000,ComplianceLtg,0.000,90.000
 Lights Internal Gains Nominal, F1 STAIRS W REGULATED LIGHTS,RETAILLIGHTS,THERMAL ZONE: F1 CORRIDOR,178.37,9.3,90.000,0.505,9.639,0.000,0.580,0.000,0.420,1.000,ComplianceLtg,0.000,90.000
 Lights Internal Gains Nominal, F1 FITNESS CENTER REGULATED LIGHTS,RETAILLIGHTS,THERMAL ZONE: F1 FITNESS CENTER,83.61,9.0,450.000,5.382,50.000,0.000,0.580,0.000,0.420,1.000,ComplianceLtg,0.000,450.000
 Lights Internal Gains Nominal, F1 LEASING OFFICE REGULATED LIGHTS,RETAILLIGHTS,THERMAL ZONE: F1 LEASING OFFICE,32.05,1.7,224.250,6.997,130.000,0.000,0.580,0.000,0.420,1.000,ComplianceLtg,0.000,224.250
 Lights Internal Gains Nominal, F1 LOUNGE REGULATED LIGHTS,RETAILLIGHTS,THERMAL ZONE: F1 LOUNGE,97.55,35.0,682.500,6.997,19.499,0.000,0.580,0.000,0.420,1.000,ComplianceLtg,0.000,682.500
 Lights Internal Gains Nominal, F1 MECHANICAL ROOM REGULATED LIGHTS,RETAILLIGHTS,THERMAL ZONE: F1 MECHANICAL ROOM,40.13,0.6,172.800,4.306,266.667,0.000,0.580,0.000,0.420,1.000,ComplianceLtg,0.000,172.800
 Lights Internal Gains Nominal, F1 RETAIL N CORE REGULATED LIGHTS,RETAILLIGHTS,THERMAL ZONE: F1 RETAIL N-NW,556.02,49.9,1665.000,2.994,33.377,0.000,0.580,0.000,0.420,1.000,ComplianceLtg,0.000,1665.000
 Lights Internal Gains Nominal, F1 RETAIL NW INNER CORE REGULATED LIGHTS,RETAILLIGHTS,THERMAL ZONE: F1 RETAIL N-NW,556.02,49.9,1440.000,2.590,28.866,0.000,0.580,0.000,0.420,1.000,ComplianceLtg,0.000,1440.000
 Lights Internal Gains Nominal, F1 RETAIL NW OUTER CORE REGULATED LIGHTS,RETAILLIGHTS,THERMAL ZONE: F1 RETAIL N-NW,556.02,49.9,1440.000,2.590,28.866,0.000,0.580,0.000,0.420,1.000,ComplianceLtg,0.000,1440.000
 Lights Internal Gains Nominal, F1 RETAIL NW OUTER REGULATED LIGHTS,RETAILLIGHTS,THERMAL ZONE: F1 RETAIL N-NW,556.02,49.9,1440.000,2.590,28.866,0.000,0.580,0.000,0.420,1.000,ComplianceLtg,0.000,1440.000
 Lights Internal Gains Nominal, F1 RETAIL NE CORE REGULATED LIGHTS,RETAILLIGHTS,THERMAL ZONE: F1 RETAIL NE,401.34,36.0,1440.000,3.588,39.992,0.000,0.580,0.000,0.420,1.000,ComplianceLtg,0.000,1440.000
 Lights Internal Gains Nominal, F1 RETAIL NE INNER REGULATED LIGHTS,RETAILLIGHTS,THERMAL ZONE: F1 RETAIL NE,401.34,36.0,1440.000,3.588,39.992,0.000,0.580,0.000,0.420,1.000,ComplianceLtg,0.000,1440.000
 Lights Internal Gains Nominal, F1 RETAIL NE OUTER REGULATED LIGHTS,RETAILLIGHTS,THERMAL ZONE: F1 RETAIL NE,401.34,36.0,1440.000,3.588,39.992,0.000,0.580,0.000,0.420,1.000,ComplianceLtg,0.000,1440.000
 Lights Internal Gains Nominal, F1 RETAIL SE BOTTOM REGULATED LIGHTS,RETAILLIGHTS,THERMAL ZONE: F1 RETAIL SE,267.56,24.0,1440.000,5.382,59.988,0.000,0.580,0.000,0.420,1.000,ComplianceLtg,0.000,1440.000
 Lights Internal Gains Nominal, F1 RETAIL SE TOP REGULATED LIGHTS,RETAILLIGHTS,THERMAL ZONE: F1 RETAIL SE,267.56,24.0,1440.000,5.382,59.988,0.000,0.580,0.000,0.420,1.000,ComplianceLtg,0.000,1440.000
 Lights Internal Gains Nominal, F1 RETAIL SW BOTTOM REGULATED LIGHTS,RETAILLIGHTS,THERMAL ZONE: F1 RETAIL SW,411.37,36.9,1440.000,3.500,39.017,0.000,0.580,0.000,0.420,1.000,ComplianceLtg,0.000,1440.000
 Lights Internal Gains Nominal, F1 RETAIL SW CORE REGULATED LIGHTS,RETAILLIGHTS,THERMAL ZONE: F1 RETAIL SW,411.37,36.9,1440.000,3.500,39.017,0.000,0.580,0.000,0.420,1.000,ComplianceLtg,0.000,1440.000
 Lights Internal Gains Nominal, F1 RETAIL SW TOP REGULATED LIGHTS,RETAILLIGHTS,THERMAL ZONE: F1 RETAIL SW,411.37,36.9,1548.000,3.763,41.943,0.000,0.580,0.000,0.420,1.000,ComplianceLtg,0.000,1548.000
 Lights Internal Gains Nominal, F2-4 1-BED CORE NE NON-REGULATED LIGHTS,RESIDENTIALLIVINGLIGHTS,THERMAL ZONE: F2-4 1-BED CORE EAST,133.78,4.0,360.000,2.691,90.000,0.000,0.580,0.000,0.420,1.000,NonComplianceLtg,0.000,360.000
 Lights Internal Gains Nominal, F2-4 1-BED CORE SE NON-REGULATED LIGHTS,RESIDENTIALLIVINGLIGHTS,THERMAL ZONE: F2-4 1-BED CORE EAST,133.78,4.0,360.000,2.691,90.000,0.000,0.580,0.000,0.420,1.000,NonComplianceLtg,0.000,360.000
 Lights Internal Gains Nominal, F2-4 1-BED CORE N NON-REGULATED LIGHTS,RESIDENTIALLIVINGLIGHTS,THERMAL ZONE: F2-4 1-BED CORE N,66.89,2.0,360.000,5.382,180.000,0.000,0.580,0.000,0.420,1.000,NonComplianceLtg,0.000,360.000
 Lights Internal Gains Nominal, F2-4 1-BED CORE NW NON-REGULATED LIGHTS,RESIDENTIALLIVINGLIGHTS,THERMAL ZONE: F2-4 1-BED CORE WEST,133.78,4.0,360.000,2.691,90.000,0.000,0.580,0.000,0.420,1.000,NonComplianceLtg,0.000,360.000
 Lights Internal Gains Nominal, F2-4 1-BED CORE SW NON-REGULATED LIGHTS,RESIDENTIALLIVINGLIGHTS,THERMAL ZONE: F2-4 1-BED CORE WEST,133.78,4.0,360.000,2.691,90.000,0.000,0.580,0.000,0.420,1.000,NonComplianceLtg,0.000,360.000
 Lights Internal Gains Nominal, F2-4 1-BED N NON-REGULATED LIGHTS,RESIDENTIALLIVINGLIGHTS,THERMAL ZONE: F2-4 1-BED NORTH,345.60,10.0,372.000,1.076,37.200,0.000,0.580,0.000,0.420,1.000,NonComplianceLtg,0.000,372.000
 Lights Internal Gains Nominal, F2-4 1-BED NE CORE NON-REGULATED LIGHTS,RESIDENTIALLIVINGLIGHTS,THERMAL ZONE: F2-4 1-BED NORTH,345.60,10.0,372.000,1.076,37.200,0.000,0.580,0.000,0.420,1.000,NonComplianceLtg,0.000,372.000
 Lights Internal Gains Nominal, F2-4 1-BED NE OUTER NON-REGULATED LIGHTS,RESIDENTIALLIVINGLIGHTS,THERMAL ZONE: F2-4 1-BED NORTH,345.60,10.0,372.000,1.076,37.200,0.000,0.580,0.000,0.420,1.000,NonComplianceLtg,0.000,372.000
 Lights Internal Gains Nominal, F2-4 1-BED NW CORE NON-REGULATED LIGHTS,RESIDENTIALLIVINGLIGHTS,THERMAL ZONE: F2-4 1-BED NORTH,345.60,10.0,372.000,1.076,37.200,0.000,0.580,0.000,0.420,1.000,NonComplianceLtg,0.000,372.000
 Lights Internal Gains Nominal, F2-4 1-BED NW OUTER NON-REGULATED LIGHTS,RESIDENTIALLIVINGLIGHTS,THERMAL ZONE: F2-4 1-BED NORTH,345.60,10.0,372.000,1.076,37.200,0.000,0.580,0.000,0.420,1.000,NonComplianceLtg,0.000,372.000
 Lights Internal Gains Nominal, F2-4 2-BED CORE NE NON-REGULATED LIGHTS,RESIDENTIALLIVINGLIGHTS,THERMAL ZONE: F2-4 2-BED CORE NE-NW,200.67,6.0,540.000,2.691,90.000,0.000,0.580,0.000,0.420,1.000,NonComplianceLtg,0.000,540.000
 Lights Internal Gains Nominal, F2-4 2-BED CORE NW NON-REGULATED LIGHTS,RESIDENTIALLIVINGLIGHTS,THERMAL ZONE: F2-4 2-BED CORE NE-NW,200.67,6.0,540.000,2.691,90.000,0.000,0.580,0.000,0.420,1.000,NonComplianceLtg,0.000,540.000
 Lights Internal Gains Nominal, F2-4 2-BED NE NON-REGULATED LIGHTS,RESIDENTIALLIVINGLIGHTS,THERMAL ZONE: F2-4 2-BED EAST,301.01,9.0,540.000,1.794,60.000,0.000,0.580,0.000,0.420,1.000,NonComplianceLtg,0.000,540.000
 Lights Internal Gains Nominal, F2-4 2-BED SE CORE NON-REGULATED LIGHTS,RESIDENTIALLIVINGLIGHTS,THERMAL ZONE: F2-4 2-BED EAST,301.01,9.0,540.000,1.794,60.000,0.000,0.580,0.000,0.420,1.000,NonComplianceLtg,0.000,540.000
 Lights Internal Gains Nominal, F2-4 2-BED SE NON-REGULATED LIGHTS,RESIDENTIALLIVINGLIGHTS,THERMAL ZONE: F2-4 2-BED EAST,301.01,9.0,540.000,1.794,60.000,0.000,0.580,0.000,0.420,1.000,NonComplianceLtg,0.000,540.000
 Lights Internal Gains Nominal, F2-4 2-BED NW NON-REGULATED LIGHTS,RESIDENTIALLIVINGLIGHTS,THERMAL ZONE: F2-4 2-BED WEST,301.01,9.0,540.000,1.794,60.000,0.000,0.580,0.000,0.420,1.000,NonComplianceLtg,0.000,540.000
 Lights Internal Gains Nominal, F2-4 2-BED SW CORE NON-REGULATED LIGHTS,RESIDENTIALLIVINGLIGHTS,THERMAL ZONE: F2-4 2-BED WEST,301.01,9.0,540.000,1.794,60.000,0.000,0.580,0.000,0.420,1.000,NonComplianceLtg,0.000,540.000
 Lights Internal Gains Nominal, F2-4 2-BED SW NON-REGULATED LIGHTS,RESIDENTIALLIVINGLIGHTS,THERMAL ZONE: F2-4 2-BED WEST,301.01,9.0,540.000,1.794,60.000,0.000,0.580,0.000,0.420,1.000,NonComplianceLtg,0.000,540.000
 Lights Internal Gains Nominal, F2-4 3-BED NE NON-REGULATED LIGHTS,RESIDENTIALLIVINGLIGHTS,THERMAL ZONE: F2-4 3-BED NE,130.99,4.0,705.000,5.382,176.250,0.000,0.580,0.000,0.420,1.000,NonComplianceLtg,0.000,705.000
 Lights Internal Gains Nominal, F2-4 3-BED NW NON-REGULATED LIGHTS,RESIDENTIALLIVINGLIGHTS,THERMAL ZONE: F2-4 3-BED NW,130.99,4.0,705.000,5.382,176.250,0.000,0.580,0.000,0.420,1.000,NonComplianceLtg,0.000,705.000
 Lights Internal Gains Nominal, F2-4 CORRIDOR REGULATED LIGHTS,OFFICELIGHTS,THERMAL ZONE: F2-4 CORRIDOR,256.41,13.5,1287.000,5.019,95.069,0.000,0.580,0.000,0.420,1.000,ComplianceLtg,0.000,1287.000
 Lights Internal Gains Nominal, F2-4 ELEVATOR CORE REGULATED LIGHTS,OFFICELIGHTS,THERMAL ZONE: F2-4 CORRIDOR,256.41,13.5,10.000,3.900E-002,0.739,0.000,0.580,0.000,0.420,1.000,ComplianceLtg,0.000,10.000
 Lights Internal Gains Nominal, F2-4 ELEVATOR N REGULATED LIGHTS,OFFICELIGHTS,THERMAL ZONE: F2-4 CORRIDOR,256.41,13.5,10.000,3.900E-002,0.739,0.000,0.580,0.000,0.420,1.000,ComplianceLtg,0.000,10.000
 Lights Internal Gains Nominal, F2-4 ELEVATOR S REGULATED LIGHTS,OFFICELIGHTS,THERMAL ZONE: F2-4 CORRIDOR,256.41,13.5,10.000,3.900E-002,0.739,0.000,0.580,0.000,0.420,1.000,ComplianceLtg,0.000,10.000
 Lights Internal Gains Nominal, F2-4 LAUNDRY REGULATED LIGHTS,OFFICELIGHTS,THERMAL ZONE: F2-4 CORRIDOR,256.41,13.5,81.000,0.316,5.983,0.000,0.580,0.000,0.420,1.000,ComplianceLtg,0.000,81.000
 Lights Internal Gains Nominal, F2-4 STAIR E REGULATED LIGHTS,OFFICELIGHTS,THERMAL ZONE: F2-4 CORRIDOR,256.41,13.5,90.000,0.351,6.648,0.000,0.580,0.000,0.420,1.000,ComplianceLtg,0.000,90.000
 Lights Internal Gains Nominal, F2-4 STAIR W REGULATED LIGHTS,OFFICELIGHTS,THERMAL ZONE: F2-4 CORRIDOR,256.41,13.5,90.000,0.351,6.648,0.000,0.580,0.000,0.420,1.000,ComplianceLtg,0.000,90.000
 Lights Internal Gains Nominal, F2-4 STUDIO SE NON-REGULATED LIGHTS,RESIDENTIALLIVINGLIGHTS,THERMAL ZONE: F2-4 STUDIO SE,50.17,2.0,270.000,5.382,135.000,0.000,0.580,0.000,0.420,1.000,NonComplianceLtg,0.000,270.000
 Lights Internal Gains Nominal, F2-4 STUDIO SW NON-REGULATED LIGHTS,RESIDENTIALLIVINGLIGHTS,THERMAL ZONE: F2-4 STUDIO SW,50.17,2.0,270.000,5.382,135.000,0.000,0.580,0.000,0.420,1.000,NonComplianceLtg,0.000,270.000
 Lights Internal Gains Nominal, F5 1-BED CORE NE NON-REGULATED LIGHTS,RESIDENTIALLIVINGLIGHTS,THERMAL ZONE: F5 1-BED CORE EAST,133.78,4.0,360.000,2.691,90.000,0.000,0.580,0.000,0.420,1.000,NonComplianceLtg,0.000,360.000
 Lights Internal Gains Nominal, F5 1-BED CORE SE NON-REGULATED LIGHTS,RESIDENTIALLIVINGLIGHTS,THERMAL ZONE: F5 1-BED CORE EAST,133.78,4.0,360.000,2.691,90.000,0.000,0.580,0.000,0.420,1.000,NonComplianceLtg,0.000,360.000
 Lights Internal Gains Nominal, F5 1-BED CORE N NON-REGULATED LIGHTS,RESIDENTIALLIVINGLIGHTS,THERMAL ZONE: F5 1-BED CORE N,66.89,2.0,360.000,5.382,180.000,0.000,0.580,0.000,0.420,1.000,NonComplianceLtg,0.000,360.000
 Lights Internal Gains Nominal, F5 1-BED CORE NW NON-REGULATED LIGHTS,RESIDENTIALLIVINGLIGHTS,THERMAL ZONE: F5 1-BED CORE WEST,133.78,4.0,360.000,2.691,90.000,0.000,0.580,0.000,0.420,1.000,NonComplianceLtg,0.000,360.000
 Lights Internal Gains Nominal, F5 1-BED CORE SW NON-REGULATED LIGHTS,RESIDENTIALLIVINGLIGHTS,THERMAL ZONE: F5 1-BED CORE WEST,133.78,4.0,360.000,2.691,90.000,0.000,0.580,0.000,0.420,1.000,NonComplianceLtg,0.000,360.000
 Lights Internal Gains Nominal, F5 1-BED N NON-REGULATED LIGHTS,RESIDENTIALLIVINGLIGHTS,THERMAL ZONE: F5 1-BED NORTH,345.60,10.0,372.000,1.076,37.200,0.000,0.580,0.000,0.420,1.000,NonComplianceLtg,0.000,372.000
 Lights Internal Gains Nominal, F5 1-BED NE CORE NON-REGULATED LIGHTS,RESIDENTIALLIVINGLIGHTS,THERMAL ZONE: F5 1-BED NORTH,345.60,10.0,372.000,1.076,37.200,0.000,0.580,0.000,0.420,1.000,NonComplianceLtg,0.000,372.000
 Lights Internal Gains Nominal, F5 1-BED NE OUTER NON-REGULATED LIGHTS,RESIDENTIALLIVINGLIGHTS,THERMAL ZONE: F5 1-BED NORTH,345.60,10.0,372.000,1.076,37.200,0.000,0.580,0.000,0.420,1.000,NonComplianceLtg,0.000,372.000
 Lights Internal Gains Nominal, F5 1-BED NW CORE NON-REGULATED LIGHTS,RESIDENTIALLIVINGLIGHTS,THERMAL ZONE: F5 1-BED NORTH,345.60,10.0,372.000,1.076,37.200,0.000,0.580,0.000,0.420,1.000,NonComplianceLtg,0.000,372.000
 Lights Internal Gains Nominal, F5 1-BED NW OUTER NON-REGULATED LIGHTS,RESIDENTIALLIVINGLIGHTS,THERMAL ZONE: F5 1-BED NORTH,345.60,10.0,372.000,1.076,37.200,0.000,0.580,0.000,0.420,1.000,NonComplianceLtg,0.000,372.000
 Lights Internal Gains Nominal, F5 2-BED CORE NE NON-REGULATED LIGHTS,RESIDENTIALLIVINGLIGHTS,THERMAL ZONE: F5 2-BED CORE NE-NW,200.67,6.0,540.000,2.691,90.000,0.000,0.580,0.000,0.420,1.000,NonComplianceLtg,0.000,540.000
 Lights Internal Gains Nominal, F5 2-BED CORE NW NON-REGULATED LIGHTS,RESIDENTIALLIVINGLIGHTS,THERMAL ZONE: F5 2-BED CORE NE-NW,200.67,6.0,540.000,2.691,90.000,0.000,0.580,0.000,0.420,1.000,NonComplianceLtg,0.000,540.000
 Lights Internal Gains Nominal, F5 2-BED NE NON-REGULATED LIGHTS,RESIDENTIALLIVINGLIGHTS,THERMAL ZONE: F5 2-BED EAST,301.01,9.0,540.000,1.794,60.000,0.000,0.580,0.000,0.420,1.000,NonComplianceLtg,0.000,540.000
 Lights Internal Gains Nominal, F5 2-BED SE CORE NON-REGULATED LIGHTS,RESIDENTIALLIVINGLIGHTS,THERMAL ZONE: F5 2-BED EAST,301.01,9.0,540.000,1.794,60.000,0.000,0.580,0.000,0.420,1.000,NonComplianceLtg,0.000,540.000
 Lights Internal Gains Nominal, F5 2-BED SE NON-REGULATED LIGHTS,RESIDENTIALLIVINGLIGHTS,THERMAL ZONE: F5 2-BED EAST,301.01,9.0,540.000,1.794,60.000,0.000,0.580,0.000,0.420,1.000,NonComplianceLtg,0.000,540.000
 Lights Internal Gains Nominal, F5 2-BED NW NON-REGULATED LIGHTS,RESIDENTIALLIVINGLIGHTS,THERMAL ZONE: F5 2-BED WEST,301.01,9.0,540.000,1.794,60.000,0.000,0.580,0.000,0.420,1.000,NonComplianceLtg,0.000,540.000
 Lights Internal Gains Nominal, F5 2-BED SW CORE NON-REGULATED LIGHTS,RESIDENTIALLIVINGLIGHTS,THERMAL ZONE: F5 2-BED WEST,301.01,9.0,540.000,1.794,60.000,0.000,0.580,0.000,0.420,1.000,NonComplianceLtg,0.000,540.000
 Lights Internal Gains Nominal, F5 2-BED SW NON-REGULATED LIGHTS,RESIDENTIALLIVINGLIGHTS,THERMAL ZONE: F5 2-BED WEST,301.01,9.0,540.000,1.794,60.000,0.000,0.580,0.000,0.420,1.000,NonComplianceLtg,0.000,540.000
 Lights Internal Gains Nominal, F5 3-BED NE NON-REGULATED LIGHTS,RESIDENTIALLIVINGLIGHTS,THERMAL ZONE: F5 3-BED NE,130.99,4.0,705.000,5.382,176.250,0.000,0.580,0.000,0.420,1.000,NonComplianceLtg,0.000,705.000
 Lights Internal Gains Nominal, F5 3-BED NW NON-REGULATED LIGHTS,RESIDENTIALLIVINGLIGHTS,THERMAL ZONE: F5 3-BED NW,130.99,4.0,705.000,5.382,176.250,0.000,0.580,0.000,0.420,1.000,NonComplianceLtg,0.000,705.000
 Lights Internal Gains Nominal, F5 CORRIDOR REGULATED LIGHTS,OFFICELIGHTS,THERMAL ZONE: F5 CORRIDOR,256.41,13.5,1287.000,5.019,95.069,0.000,0.580,0.000,0.420,1.000,ComplianceLtg,0.000,1287.000
 Lights Internal Gains Nominal, F5 ELEVATOR CORE REGULATED LIGHTS,OFFICELIGHTS,THERMAL ZONE: F5 CORRIDOR,256.41,13.5,10.000,3.900E-002,0.739,0.000,0.580,0.000,0.420,1.000,ComplianceLtg,0.000,10.000
 Lights Internal Gains Nominal, F5 ELEVATOR N REGULATED LIGHTS,OFFICELIGHTS,THERMAL ZONE: F5 CORRIDOR,256.41,13.5,10.000,3.900E-002,0.739,0.000,0.580,0.000,0.420,1.000,ComplianceLtg,0.000,10.000
 Lights Internal Gains Nominal, F5 ELEVATOR S REGULATED LIGHTS,OFFICELIGHTS,THERMAL ZONE: F5 CORRIDOR,256.41,13.5,10.000,3.900E-002,0.739,0.000,0.580,0.000,0.420,1.000,ComplianceLtg,0.000,10.000
 Lights Internal Gains Nominal, F5 LAUNDRY REGULATED LIGHTS,OFFICELIGHTS,THERMAL ZONE: F5 CORRIDOR,256.41,13.5,81.000,0.316,5.983,0.000,0.580,0.000,0.420,1.000,ComplianceLtg,0.000,81.000
 Lights Internal Gains Nominal, F5 STAIR E REGULATED LIGHTS,OFFICELIGHTS,THERMAL ZONE: F5 CORRIDOR,256.41,13.5,90.000,0.351,6.648,0.000,0.580,0.000,0.420,1.000,ComplianceLtg,0.000,90.000
 Lights Internal Gains Nominal, F5 STAIR W REGULATED LIGHTS,OFFICELIGHTS,THERMAL ZONE: F5 CORRIDOR,256.41,13.5,90.000,0.351,6.648,0.000,0.580,0.000,0.420,1.000,ComplianceLtg,0.000,90.000
 Lights Internal Gains Nominal, F5 STUDIO SE NON-REGULATED LIGHTS,RESIDENTIALLIVINGLIGHTS,THERMAL ZONE: F5 STUDIO SE,50.17,2.0,270.000,5.382,135.000,0.000,0.580,0.000,0.420,1.000,NonComplianceLtg,0.000,270.000
 Lights Internal Gains Nominal, F5 STUDIO SW NON-REGULATED LIGHTS,RESIDENTIALLIVINGLIGHTS,THERMAL ZONE: F5 STUDIO SW,50.17,2.0,270.000,5.382,135.000,0.000,0.580,0.000,0.420,1.000,NonComplianceLtg,0.000,270.000
 Lights Internal Gains Nominal, PARKING GARAGE REGULATED LIGHTS,PARKINGLIGHTS,THERMAL ZONE: PARKING GARAGE,2591.99,69.8,2790.000,1.076,40.000,0.000,0.580,0.000,0.420,1.000,NonComplianceLtg,0.000,2790.000
! <ElectricEquipment Internal Gains Nominal>,Name,Schedule Name,Zone Name,Zone Floor Area {m2},# Zone Occupants,Equipment Level {W},Equipment/Floor Area {W/m2},Equipment per person {W/person},Fraction Latent,Fraction Radiant,Fraction Lost,Fraction Convected,End-Use SubCategory,Nominal Minimum Equipment Level {W},Nominal Maximum Equipment Level {W}
 ElectricEquipment Internal Gains Nominal, F1 BUSINESS CENTER RECEPTICLE LOADS,RETAILRECEPTACLE,THERMAL ZONE: F1 BUSINESS CENTER,33.45,12.0,360.000,10.764,29.999,0.000,0.200,0.000,0.800,Receptacle,0.000,360.000
 ElectricEquipment Internal Gains Nominal, F1 ELEVATOR CORE RECEPTICLE LOADS,RETAILRECEPTACLE,THERMAL ZONE: F1 CORRIDOR,178.37,9.3,75.000,0.420,8.032,0.000,0.200,0.000,0.800,Receptacle,0.000,75.000
 ElectricEquipment Internal Gains Nominal, F1 ELEVATOR N RECEPTICLE LOADS,RETAILRECEPTACLE,THERMAL ZONE: F1 CORRIDOR,178.37,9.3,75.000,0.420,8.032,0.000,0.200,0.000,0.800,Receptacle,0.000,75.000
 ElectricEquipment Internal Gains Nominal, F1 ELEVATOR S RECEPTICLE LOADS,RETAILRECEPTACLE,THERMAL ZONE: F1 CORRIDOR,178.37,9.3,75.000,0.420,8.032,0.000,0.200,0.000,0.800,Receptacle,0.000,75.000
 ElectricEquipment Internal Gains Nominal, F1 FITNESS CENTER RECEPTICLE LOADS,RETAILRECEPTACLE,THERMAL ZONE: F1 FITNESS CENTER,83.61,9.0,450.000,5.382,50.000,0.000,0.200,0.000,0.800,Receptacle,0.000,450.000
 ElectricEquipment Internal Gains Nominal, F1 LEASING OFFICE RECEPTICLE LOADS,RETAILRECEPTACLE,THERMAL ZONE: F1 LEASING OFFICE,32.05,1.7,517.500,16.146,300.000,0.000,0.200,0.000,0.800,Receptacle,0.000,517.500
 ElectricEquipment Internal Gains Nominal, F1 LOUNGE RECEPTICLE LOADS,RETAILRECEPTACLE,THERMAL ZONE: F1 LOUNGE,97.55,35.0,1050.000,10.764,29.999,0.000,0.200,0.000,0.800,Receptacle,0.000,1050.000
 ElectricEquipment Internal Gains Nominal, F1 MECHANICAL ROOM RECEPTICLE LOADS,RETAILRECEPTACLE,THERMAL ZONE: F1 MECHANICAL ROOM,40.13,0.6,1296.000,32.292,2000.000,0.000,0.200,0.000,0.800,Receptacle,0.000,1296.000
 ElectricEquipment Internal Gains Nominal, F1 RETAIL N CORE RECEPTICLE LOADS,RETAILRECEPTACLE,THERMAL ZONE: F1 RETAIL N-NW,556.02,49.9,1665.000,2.994,33.377,0.000,0.200,0.000,0.800,Receptacle,0.000,1665.000
 ElectricEquipment Internal Gains Nominal, F1 RETAIL NW INNER CORE RECEPTICLE LOADS,RETAILRECEPTACLE,THERMAL ZONE: F1 RETAIL N-NW,556.02,49.9,1440.000,2.590,28.866,0.000,0.200,0.000,0.800,Receptacle,0.000,1440.000
 ElectricEquipment Internal Gains Nominal, F1 RETAIL NW OUTER CORE RECEPTICLE LOADS,RETAILRECEPTACLE,THERMAL ZONE: F1 RETAIL N-NW,556.02,49.9,1440.000,2.590,28.866,0.000,0.200,0.000,0.800,Receptacle,0.000,1440.000
 ElectricEquipment Internal Gains Nominal, F1 RETAIL NW OUTER RECEPTICLE LOADS,RETAILRECEPTACLE,THERMAL ZONE: F1 RETAIL N-NW,556.02,49.9,1440.000,2.590,28.866,0.000,0.200,0.000,0.800,Receptacle,0.000,1440.000
 ElectricEquipment Internal Gains Nominal, F1 RETAIL NE CORE RECEPTICLE LOADS,RETAILRECEPTACLE,THERMAL ZONE: F1 RETAIL NE,401.34,36.0,1440.000,3.588,39.992,0.000,0.200,0.000,0.800,Receptacle,0.000,1440.000
 ElectricEquipment Internal Gains Nominal, F1 RETAIL NE INNER RECEPTICLE LOADS,RETAILRECEPTACLE,THERMAL ZONE: F1 RETAIL NE,401.34,36.0,1440.000,3.588,39.992,0.000,0.200,0.000,0.800,Receptacle,0.000,1440.000
 ElectricEquipment Internal Gains Nominal, F1 RETAIL NE OUTER RECEPTICLE LOADS,RETAILRECEPTACLE,THERMAL ZONE: F1 RETAIL NE,401.34,36.0,1440.000,3.588,39.992,0.000,0.200,0.000,0.800,Receptacle,0.000,1440.000
 ElectricEquipment Internal Gains Nominal, F1 RETAIL SE BOTTOM RECEPTICLE LOADS,RETAILRECEPTACLE,THERMAL ZONE: F1 RETAIL SE,267.56,24.0,1440.000,5.382,59.988,0.000,0.200,0.000,0.800,Receptacle,0.000,1440.000
 ElectricEquipment Internal Gains Nominal, F1 RETAIL SE TOP RECEPTICLE LOADS,RETAILRECEPTACLE,THERMAL ZONE: F1 RETAIL SE,267.56,24.0,1440.000,5.382,59.988,0.000,0.200,0.000,0.800,Receptacle,0.000,1440.000
 ElectricEquipment Internal Gains Nominal, F1 RETAIL SW BOTTOM RECEPTICLE LOADS,RETAILRECEPTACLE,THERMAL ZONE: F1 RETAIL SW,411.37,36.9,1440.000,3.500,39.017,0.000,0.200,0.000,0.800,Receptacle,0.000,1440.000
 ElectricEquipment Internal Gains Nominal, F1 RETAIL SW CORE RECEPTICLE LOADS,RETAILRECEPTACLE,THERMAL ZONE: F1 RETAIL SW,411.37,36.9,1440.000,3.500,39.017,0.000,0.200,0.000,0.800,Receptacle,0.000,1440.000
 ElectricEquipment Internal Gains Nominal, F1 RETAIL SW TOP RECEPTICLE LOADS,RETAILRECEPTACLE,THERMAL ZONE: F1 RETAIL SW,411.37,36.9,1548.000,3.763,41.943,0.000,0.200,0.000,0.800,Receptacle,0.000,1548.000
 ElectricEquipment Internal Gains Nominal, F2-4 1-BED CORE NE RECEPTICLE LOADS,RESIDENTIALLIVINGRECEPTACLE,THERMAL ZONE: F2-4 1-BED CORE EAST,133.78,4.0,360.000,2.691,90.000,0.000,0.200,0.000,0.800,Receptacle,0.000,360.000
 ElectricEquipment Internal Gains Nominal, F2-4 1-BED CORE SE RECEPTICLE LOADS,RESIDENTIALLIVINGRECEPTACLE,THERMAL ZONE: F2-4 1-BED CORE EAST,133.78,4.0,360.000,2.691,90.000,0.000,0.200,0.000,0.800,Receptacle,0.000,360.000
 ElectricEquipment Internal Gains Nominal, F2-4 1-BED CORE N RECEPTICLE LOADS,RESIDENTIALLIVINGRECEPTACLE,THERMAL ZONE: F2-4 1-BED CORE N,66.89,2.0,360.000,5.382,180.000,0.000,0.200,0.000,0.800,Receptacle,0.000,360.000
 ElectricEquipment Internal Gains Nominal, F2-4 1-BED CORE NW RECEPTICLE LOADS,RESIDENTIALLIVINGRECEPTACLE,THERMAL ZONE: F2-4 1-BED CORE WEST,133.78,4.0,360.000,2.691,90.000,0.000,0.200,0.000,0.800,Receptacle,0.000,360.000
 ElectricEquipment Internal Gains Nominal, F2-4 1-BED CORE SW RECEPTICLE LOADS,RESIDENTIALLIVINGRECEPTACLE,THERMAL ZONE: F2-4 1-BED CORE WEST,133.78,4.0,360.000,2.691,90.000,0.000,0.200,0.000,0.800,Receptacle,0.000,360.000
 ElectricEquipment Internal Gains Nominal, F2-4 1-BED N RECEPTICLE LOADS,RESIDENTIALLIVINGRECEPTACLE,THERMAL ZONE: F2-4 1-BED NORTH,345.60,10.0,372.000,1.076,37.200,0.000,0.200,0.000,0.800,Receptacle,0.000,372.000
 ElectricEquipment Internal Gains Nominal, F2-4 1-BED NE CORE RECEPTICLE LOADS,RESIDENTIALLIVINGRECEPTACLE,THERMAL ZONE: F2-4 1-BED NORTH,345.60,10.0,372.000,1.076,37.200,0.000,0.200,0.000,0.800,Receptacle,0.000,372.000
 ElectricEquipment Internal Gains Nominal, F2-4 1-BED NE OUTER RECEPTICLE LOADS,RESIDENTIALLIVINGRECEPTACLE,THERMAL ZONE: F2-4 1-BED NORTH,345.60,10.0,372.000,1.076,37.200,0.000,0.200,0.000,0.800,Receptacle,0.000,372.000
 ElectricEquipment Internal Gains Nominal, F2-4 1-BED NW CORE RECEPTICLE LOADS,RESIDENTIALLIVINGRECEPTACLE,THERMAL ZONE: F2-4 1-BED NORTH,345.60,10.0,372.000,1.076,37.200,0.000,0.200,0.000,0.800,Receptacle,0.000,372.000
 ElectricEquipment Internal Gains Nominal, F2-4 1-BED NW OUTER RECEPTICLE LOADS,RESIDENTIALLIVINGRECEPTACLE,THERMAL ZONE: F2-4 1-BED NORTH,345.60,10.0,372.000,1.076,37.200,0.000,0.200,0.000,0.800,Receptacle,0.000,372.000
 ElectricEquipment Internal Gains Nominal, F2-4 2-BED CORE NE RECEPTICLE LOADS,RESIDENTIALLIVINGRECEPTACLE,THERMAL ZONE: F2-4 2-BED CORE NE-NW,200.67,6.0,540.000,2.691,90.000,0.000,0.200,0.000,0.800,Receptacle,0.000,540.000
 ElectricEquipment Internal Gains Nominal, F2-4 2-BED CORE NW RECEPTICLE LOADS,RESIDENTIALLIVINGRECEPTACLE,THERMAL ZONE: F2-4 2-BED CORE NE-NW,200.67,6.0,540.000,2.691,90.000,0.000,0.200,0.000,0.800,Receptacle,0.000,540.000
 ElectricEquipment Internal Gains Nominal, F2-4 2-BED NE RECEPTICLE LOADS,RESIDENTIALLIVINGRECEPTACLE,THERMAL ZONE: F2-4 2-BED EAST,301.01,9.0,540.000,1.794,60.000,0.000,0.200,0.000,0.800,Receptacle,0.000,540.000
 ElectricEquipment Internal Gains Nominal, F2-4 2-BED SE CORE RECEPTICLE LOADS,RESIDENTIALLIVINGRECEPTACLE,THERMAL ZONE: F2-4 2-BED EAST,301.01,9.0,540.000,1.794,60.000,0.000,0.200,0.000,0.800,Receptacle,0.000,540.000
 ElectricEquipment Internal Gains Nominal, F2-4 2-BED SE RECEPTICLE LOADS,RESIDENTIALLIVINGRECEPTACLE,THERMAL ZONE: F2-4 2-BED EAST,301.01,9.0,540.000,1.794,60.000,0.000,0.200,0.000,0.800,Receptacle,0.000,540.000
 ElectricEquipment Internal Gains Nominal, F2-4 2-BED NW RECEPTICLE LOADS,RESIDENTIALLIVINGRECEPTACLE,THERMAL ZONE: F2-4 2-BED WEST,301.01,9.0,540.000,1.794,60.000,0.000,0.200,0.000,0.800,Receptacle,0.000,540.000
 ElectricEquipment Internal Gains Nominal, F2-4 2-BED SW CORE RECEPTICLE LOADS,RESIDENTIALLIVINGRECEPTACLE,THERMAL ZONE: F2-4 2-BED WEST,301.01,9.0,540.000,1.794,60.000,0.000,0.200,0.000,0.800,Receptacle,0.000,540.000
 ElectricEquipment Internal Gains Nominal, F2-4 2-BED SW RECEPTICLE LOADS,RESIDENTIALLIVINGRECEPTACLE,THERMAL ZONE: F2-4 2-BED WEST,301.01,9.0,540.000,1.794,60.000,0.000,0.200,0.000,0.800,Receptacle,0.000,540.000
 ElectricEquipment Internal Gains Nominal, F2-4 3-BED NE RECEPTICLE LOADS,RESIDENTIALLIVINGRECEPTACLE,THERMAL ZONE: F2-4 3-BED NE,130.99,4.0,705.000,5.382,176.250,0.000,0.200,0.000,0.800,Receptacle,0.000,705.000
 ElectricEquipment Internal Gains Nominal, F2-4 3-BED NW RECEPTICLE LOADS,RESIDENTIALLIVINGRECEPTACLE,THERMAL ZONE: F2-4 3-BED NW,130.99,4.0,705.000,5.382,176.250,0.000,0.200,0.000,0.800,Receptacle,0.000,705.000
 ElectricEquipment Internal Gains Nominal, F2-4 ELEVATOR CORE RECEPTICLE LOADS,OFFICERECEPTACLE,THERMAL ZONE: F2-4 CORRIDOR,256.41,13.5,75.000,0.292,5.540,0.000,0.200,0.000,0.800,Receptacle,0.000,75.000
 ElectricEquipment Internal Gains Nominal, F2-4 ELEVATOR N RECEPTICLE LOADS,OFFICERECEPTACLE,THERMAL ZONE: F2-4 CORRIDOR,256.41,13.5,75.000,0.292,5.540,0.000,0.200,0.000,0.800,Receptacle,0.000,75.000
 ElectricEquipment Internal Gains Nominal, F2-4 ELEVATOR S RECEPTICLE LOADS,OFFICERECEPTACLE,THERMAL ZONE: F2-4 CORRIDOR,256.41,13.5,75.000,0.292,5.540,0.000,0.200,0.000,0.800,Receptacle,0.000,75.000
 ElectricEquipment Internal Gains Nominal, F2-4 LAUNDRY RECEPTICLE LOADS,OFFICERECEPTACLE,THERMAL ZONE: F2-4 CORRIDOR,256.41,13.5,540.000,2.106,39.889,0.000,0.200,0.000,0.800,Receptacle,0.000,540.000
 ElectricEquipment Internal Gains Nominal, F2-4 STUDIO SE RECEPTICLE LOADS,RESIDENTIALLIVINGRECEPTACLE,THERMAL ZONE: F2-4 STUDIO SE,50.17,2.0,270.000,5.382,135.000,0.000,0.200,0.000,0.800,Receptacle,0.000,270.000
 ElectricEquipment Internal Gains Nominal, F2-4 STUDIO SW RECEPTICLE LOADS,RESIDENTIALLIVINGRECEPTACLE,THERMAL ZONE: F2-4 STUDIO SW,50.17,2.0,270.000,5.382,135.000,0.000,0.200,0.000,0.800,Receptacle,0.000,270.000
 ElectricEquipment Internal Gains Nominal, F5 1-BED CORE NE RECEPTICLE LOADS,RESIDENTIALLIVINGRECEPTACLE,THERMAL ZONE: F5 1-BED CORE EAST,133.78,4.0,360.000,2.691,90.000,0.000,0.200,0.000,0.800,Receptacle,0.000,360.000
 ElectricEquipment Internal Gains Nominal, F5 1-BED CORE SE RECEPTICLE LOADS,RESIDENTIALLIVINGRECEPTACLE,THERMAL ZONE: F5 1-BED CORE EAST,133.78,4.0,360.000,2.691,90.000,0.000,0.200,0.000,0.800,Receptacle,0.000,360.000
 ElectricEquipment Internal Gains Nominal, F5 1-BED CORE N RECEPTICLE LOADS,RESIDENTIALLIVINGRECEPTACLE,THERMAL ZONE: F5 1-BED CORE N,66.89,2.0,360.000,5.382,180.000,0.000,0.200,0.000,0.800,Receptacle,0.000,360.000
 ElectricEquipment Internal Gains Nominal, F5 1-BED CORE NW RECEPTICLE LOADS,RESIDENTIALLIVINGRECEPTACLE,THERMAL ZONE: F5 1-BED CORE WEST,133.78,4.0,360.000,2.691,90.000,0.000,0.200,0.000,0.800,Receptacle,0.000,360.000
 ElectricEquipment Internal Gains Nominal, F5 1-BED CORE SW RECEPTICLE LOADS,RESIDENTIALLIVINGRECEPTACLE,THERMAL ZONE: F5 1-BED CORE WEST,133.78,4.0,360.000,2.691,90.000,0.000,0.200,0.000,0.800,Receptacle,0.000,360.000
 ElectricEquipment Internal Gains Nominal, F5 1-BED N RECEPTICLE LOADS,RESIDENTIALLIVINGRECEPTACLE,THERMAL ZONE: F5 1-BED NORTH,345.60,10.0,372.000,1.076,37.200,0.000,0.200,0.000,0.800,Receptacle,0.000,372.000
 ElectricEquipment Internal Gains Nominal, F5 1-BED NE CORE RECEPTICLE LOADS,RESIDENTIALLIVINGRECEPTACLE,THERMAL ZONE: F5 1-BED NORTH,345.60,10.0,372.000,1.076,37.200,0.000,0.200,0.000,0.800,Receptacle,0.000,372.000
 ElectricEquipment Internal Gains Nominal, F5 1-BED NE OUTER RECEPTICLE LOADS,RESIDENTIALLIVINGRECEPTACLE,THERMAL ZONE: F5 1-BED NORTH,345.60,10.0,372.000,1.076,37.200,0.000,0.200,0.000,0.800,Receptacle,0.000,372.000
 ElectricEquipment Internal Gains Nominal, F5 1-BED NW CORE RECEPTICLE LOADS,RESIDENTIALLIVINGRECEPTACLE,THERMAL ZONE: F5 1-BED NORTH,345.60,10.0,372.000,1.076,37.200,0.000,0.200,0.000,0.800,Receptacle,0.000,372.000
 ElectricEquipment Internal Gains Nominal, F5 1-BED NW OUTER RECEPTICLE LOADS,RESIDENTIALLIVINGRECEPTACLE,THERMAL ZONE: F5 1-BED NORTH,345.60,10.0,372.000,1.076,37.200,0.000,0.200,0.000,0.800,Receptacle,0.000,372.000
 ElectricEquipment Internal Gains Nominal, F5 2-BED CORE NE RECEPTICLE LOADS,RESIDENTIALLIVINGRECEPTACLE,THERMAL ZONE: F5 2-BED CORE NE-NW,200.67,6.0,540.000,2.691,90.000,0.000,0.200,0.000,0.800,Receptacle,0.000,540.000
 ElectricEquipment Internal Gains Nominal, F5 2-BED CORE NW RECEPTICLE LOADS,RESIDENTIALLIVINGRECEPTACLE,THERMAL ZONE: F5 2-BED CORE NE-NW,200.67,6.0,540.000,2.691,90.000,0.000,0.200,0.000,0.800,Receptacle,0.000,540.000
 ElectricEquipment Internal Gains Nominal, F5 2-BED NE RECEPTICLE LOADS,RESIDENTIALLIVINGRECEPTACLE,THERMAL ZONE: F5 2-BED EAST,301.01,9.0,540.000,1.794,60.000,0.000,0.200,0.000,0.800,Receptacle,0.000,540.000
 ElectricEquipment Internal Gains Nominal, F5 2-BED SE CORE RECEPTICLE LOADS,RESIDENTIALLIVINGRECEPTACLE,THERMAL ZONE: F5 2-BED EAST,301.01,9.0,540.000,1.794,60.000,0.000,0.200,0.000,0.800,Receptacle,0.000,540.000
 ElectricEquipment Internal Gains Nominal, F5 2-BED SE RECEPTICLE LOADS,RESIDENTIALLIVINGRECEPTACLE,THERMAL ZONE: F5 2-BED EAST,301.01,9.0,540.000,1.794,60.000,0.000,0.200,0.000,0.800,Receptacle,0.000,540.000
 ElectricEquipment Internal Gains Nominal, F5 2-BED NW RECEPTICLE LOADS,RESIDENTIALLIVINGRECEPTACLE,THERMAL ZONE: F5 2-BED WEST,301.01,9.0,540.000,1.794,60.000,0.000,0.200,0.000,0.800,Receptacle,0.000,540.000
 ElectricEquipment Internal Gains Nominal, F5 2-BED SW CORE RECEPTICLE LOADS,RESIDENTIALLIVINGRECEPTACLE,THERMAL ZONE: F5 2-BED WEST,301.01,9.0,540.000,1.794,60.000,0.000,0.200,0.000,0.800,Receptacle,0.000,540.000
 ElectricEquipment Internal Gains Nominal, F5 2-BED SW RECEPTICLE LOADS,RESIDENTIALLIVINGRECEPTACLE,THERMAL ZONE: F5 2-BED WEST,301.01,9.0,540.000,1.794,60.000,0.000,0.200,0.000,0.800,Receptacle,0.000,540.000
 ElectricEquipment Internal Gains Nominal, F5 3-BED NE RECEPTICLE LOADS,RESIDENTIALLIVINGRECEPTACLE,THERMAL ZONE: F5 3-BED NE,130.99,4.0,705.000,5.382,176.250,0.000,0.200,0.000,0.800,Receptacle,0.000,705.000
 ElectricEquipment Internal Gains Nominal, F5 3-BED NW RECEPTICLE LOADS,RESIDENTIALLIVINGRECEPTACLE,THERMAL ZONE: F5 3-BED NW,130.99,4.0,705.000,5.382,176.250,0.000,0.200,0.000,0.800,Receptacle,0.000,705.000
 ElectricEquipment Internal Gains Nominal, F5 ELEVATOR CORE RECEPTICLE LOADS,OFFICERECEPTACLE,THERMAL ZONE: F5 CORRIDOR,256.41,13.5,75.000,0.292,5.540,0.000,0.200,0.000,0.800,Receptacle,0.000,75.000
 ElectricEquipment Internal Gains Nominal, F5 ELEVATOR N RECEPTICLE LOADS,OFFICERECEPTACLE,THERMAL ZONE: F5 CORRIDOR,256.41,13.5,75.000,0.292,5.540,0.000,0.200,0.000,0.800,Receptacle,0.000,75.000
 ElectricEquipment Internal Gains Nominal, F5 ELEVATOR S RECEPTICLE LOADS,OFFICERECEPTACLE,THERMAL ZONE: F5 CORRIDOR,256.41,13.5,75.000,0.292,5.540,0.000,0.200,0.000,0.800,Receptacle,0.000,75.000
 ElectricEquipment Internal Gains Nominal, F5 LAUNDRY RECEPTICLE LOADS,OFFICERECEPTACLE,THERMAL ZONE: F5 CORRIDOR,256.41,13.5,540.000,2.106,39.889,0.000,0.200,0.000,0.800,Receptacle,0.000,540.000
 ElectricEquipment Internal Gains Nominal, F5 STUDIO SE RECEPTICLE LOADS,RESIDENTIALLIVINGRECEPTACLE,THERMAL ZONE: F5 STUDIO SE,50.17,2.0,270.000,5.382,135.000,0.000,0.200,0.000,0.800,Receptacle,0.000,270.000
 ElectricEquipment Internal Gains Nominal, F5 STUDIO SW RECEPTICLE LOADS,RESIDENTIALLIVINGRECEPTACLE,THERMAL ZONE: F5 STUDIO SW,50.17,2.0,270.000,5.382,135.000,0.000,0.200,0.000,0.800,Receptacle,0.000,270.000
! <GasEquipment Internal Gains Nominal>,Name,Schedule Name,Zone Name,Zone Floor Area {m2},# Zone Occupants,Equipment Level {W},Equipment/Floor Area {W/m2},Equipment per person {W/person},Fraction Latent,Fraction Radiant,Fraction Lost,Fraction Convected,End-Use SubCategory,Nominal Minimum Equipment Level {W},Nominal Maximum Equipment Level {W}
 GasEquipment Internal Gains Nominal, F2-4 1-BED CORE NE GAS EQUIPMENT LOADS,RESIDENTIALLIVINGGASEQUIP,THERMAL ZONE: F2-4 1-BED CORE EAST,133.78,4.0,143.994,1.076,35.998,0.000,0.150,0.850,0.000,Receptacle,0.000,143.994
 GasEquipment Internal Gains Nominal, F2-4 1-BED CORE SE GAS EQUIPMENT LOADS,RESIDENTIALLIVINGGASEQUIP,THERMAL ZONE: F2-4 1-BED CORE EAST,133.78,4.0,143.994,1.076,35.998,0.000,0.150,0.850,0.000,Receptacle,0.000,143.994
 GasEquipment Internal Gains Nominal, F2-4 1-BED CORE N GAS EQUIPMENT LOADS,RESIDENTIALLIVINGGASEQUIP,THERMAL ZONE: F2-4 1-BED CORE N,66.89,2.0,143.994,2.153,71.997,0.000,0.150,0.850,0.000,Receptacle,0.000,143.994
 GasEquipment Internal Gains Nominal, F2-4 1-BED CORE NW GAS EQUIPMENT LOADS,RESIDENTIALLIVINGGASEQUIP,THERMAL ZONE: F2-4 1-BED CORE WEST,133.78,4.0,143.994,1.076,35.998,0.000,0.150,0.850,0.000,Receptacle,0.000,143.994
 GasEquipment Internal Gains Nominal, F2-4 1-BED CORE SW GAS EQUIPMENT LOADS,RESIDENTIALLIVINGGASEQUIP,THERMAL ZONE: F2-4 1-BED CORE WEST,133.78,4.0,143.994,1.076,35.998,0.000,0.150,0.850,0.000,Receptacle,0.000,143.994
 GasEquipment Internal Gains Nominal, F2-4 1-BED N GAS EQUIPMENT LOADS,RESIDENTIALLIVINGGASEQUIP,THERMAL ZONE: F2-4 1-BED NORTH,345.60,10.0,148.794,0.431,14.879,0.000,0.150,0.850,0.000,Receptacle,0.000,148.794
 GasEquipment Internal Gains Nominal, F2-4 1-BED NE CORE GAS EQUIPMENT LOADS,RESIDENTIALLIVINGGASEQUIP,THERMAL ZONE: F2-4 1-BED NORTH,345.60,10.0,148.794,0.431,14.879,0.000,0.150,0.850,0.000,Receptacle,0.000,148.794
 GasEquipment Internal Gains Nominal, F2-4 1-BED NE OUTER GAS EQUIPMENT LOADS,RESIDENTIALLIVINGGASEQUIP,THERMAL ZONE: F2-4 1-BED NORTH,345.60,10.0,148.794,0.431,14.879,0.000,0.150,0.850,0.000,Receptacle,0.000,148.794
 GasEquipment Internal Gains Nominal, F2-4 1-BED NW CORE GAS EQUIPMENT LOADS,RESIDENTIALLIVINGGASEQUIP,THERMAL ZONE: F2-4 1-BED NORTH,345.60,10.0,148.794,0.431,14.879,0.000,0.150,0.850,0.000,Receptacle,0.000,148.794
 GasEquipment Internal Gains Nominal, F2-4 1-BED NW OUTER GAS EQUIPMENT LOADS,RESIDENTIALLIVINGGASEQUIP,THERMAL ZONE: F2-4 1-BED NORTH,345.60,10.0,148.794,0.431,14.879,0.000,0.150,0.850,0.000,Receptacle,0.000,148.794
 GasEquipment Internal Gains Nominal, F2-4 2-BED CORE NE GAS EQUIPMENT LOADS,RESIDENTIALLIVINGGASEQUIP,THERMAL ZONE: F2-4 2-BED CORE NE-NW,200.67,6.0,215.991,1.076,35.998,0.000,0.150,0.850,0.000,Receptacle,0.000,215.991
 GasEquipment Internal Gains Nominal, F2-4 2-BED CORE NW GAS EQUIPMENT LOADS,RESIDENTIALLIVINGGASEQUIP,THERMAL ZONE: F2-4 2-BED CORE NE-NW,200.67,6.0,215.991,1.076,35.998,0.000,0.150,0.850,0.000,Receptacle,0.000,215.991
 GasEquipment Internal Gains Nominal, F2-4 2-BED NE GAS EQUIPMENT LOADS,RESIDENTIALLIVINGGASEQUIP,THERMAL ZONE: F2-4 2-BED EAST,301.01,9.0,215.991,0.718,23.999,0.000,0.150,0.850,0.000,Receptacle,0.000,215.991
 GasEquipment Internal Gains Nominal, F2-4 2-BED SE CORE GAS EQUIPMENT LOADS,RESIDENTIALLIVINGGASEQUIP,THERMAL ZONE: F2-4 2-BED EAST,301.01,9.0,215.991,0.718,23.999,0.000,0.150,0.850,0.000,Receptacle,0.000,215.991
 GasEquipment Internal Gains Nominal, F2-4 2-BED SE GAS EQUIPMENT LOADS,RESIDENTIALLIVINGGASEQUIP,THERMAL ZONE: F2-4 2-BED EAST,301.01,9.0,215.991,0.718,23.999,0.000,0.150,0.850,0.000,Receptacle,0.000,215.991
 GasEquipment Internal Gains Nominal, F2-4 2-BED NW GAS EQUIPMENT LOADS,RESIDENTIALLIVINGGASEQUIP,THERMAL ZONE: F2-4 2-BED WEST,301.01,9.0,215.991,0.718,23.999,0.000,0.150,0.850,0.000,Receptacle,0.000,215.991
 GasEquipment Internal Gains Nominal, F2-4 2-BED SW CORE GAS EQUIPMENT LOADS,RESIDENTIALLIVINGGASEQUIP,THERMAL ZONE: F2-4 2-BED WEST,301.01,9.0,215.991,0.718,23.999,0.000,0.150,0.850,0.000,Receptacle,0.000,215.991
 GasEquipment Internal Gains Nominal, F2-4 2-BED SW GAS EQUIPMENT LOADS,RESIDENTIALLIVINGGASEQUIP,THERMAL ZONE: F2-4 2-BED WEST,301.01,9.0,215.991,0.718,23.999,0.000,0.150,0.850,0.000,Receptacle,0.000,215.991
 GasEquipment Internal Gains Nominal, F2-4 3-BED NE GAS EQUIPMENT LOADS,RESIDENTIALLIVINGGASEQUIP,THERMAL ZONE: F2-4 3-BED NE,130.99,4.0,281.988,2.153,70.497,0.000,0.150,0.850,0.000,Receptacle,0.000,281.988
 GasEquipment Internal Gains Nominal, F2-4 3-BED NW GAS EQUIPMENT LOADS,RESIDENTIALLIVINGGASEQUIP,THERMAL ZONE: F2-4 3-BED NW,130.99,4.0,281.988,2.153,70.497,0.000,0.150,0.850,0.000,Receptacle,0.000,281.988
 GasEquipment Internal Gains Nominal, F2-4 LAUNDRY GAS EQUIPMENT LOADS,OFFICEGASEQUIP,THERMAL ZONE: F2-4 CORRIDOR,256.41,13.5,39.598,0.154,2.925,0.000,0.150,0.850,0.000,Receptacle,0.000,39.598
 GasEquipment Internal Gains Nominal, F2-4 STUDIO SE GAS EQUIPMENT LOADS,RESIDENTIALLIVINGGASEQUIP,THERMAL ZONE: F2-4 STUDIO SE,50.17,2.0,107.996,2.153,53.998,0.000,0.150,0.850,0.000,Receptacle,0.000,107.996
 GasEquipment Internal Gains Nominal, F2-4 STUDIO SW GAS EQUIPMENT LOADS,RESIDENTIALLIVINGGASEQUIP,THERMAL ZONE: F2-4 STUDIO SW,50.17,2.0,107.996,2.153,53.998,0.000,0.150,0.850,0.000,Receptacle,0.000,107.996
 GasEquipment Internal Gains Nominal, F5 1-BED CORE NE GAS EQUIPMENT LOADS,RESIDENTIALLIVINGGASEQUIP,THERMAL ZONE: F5 1-BED CORE EAST,133.78,4.0,143.994,1.076,35.998,0.000,0.150,0.850,0.000,Receptacle,0.000,143.994
 GasEquipment Internal Gains Nominal, F5 1-BED CORE SE GAS EQUIPMENT LOADS,RESIDENTIALLIVINGGASEQUIP,THERMAL ZONE: F5 1-BED CORE EAST,133.78,4.0,143.994,1.076,35.998,0.000,0.150,0.850,0.000,Receptacle,0.000,143.994
 GasEquipment Internal Gains Nominal, F5 1-BED CORE N GAS EQUIPMENT LOADS,RESIDENTIALLIVINGGASEQUIP,THERMAL ZONE: F5 1-BED CORE N,66.89,2.0,143.994,2.153,71.997,0.000,0.150,0.850,0.000,Receptacle,0.000,143.994
 GasEquipment Internal Gains Nominal, F5 1-BED CORE NW GAS EQUIPMENT LOADS,RESIDENTIALLIVINGGASEQUIP,THERMAL ZONE: F5 1-BED CORE WEST,133.78,4.0,143.994,1.076,35.998,0.000,0.150,0.850,0.000,Receptacle,0.000,143.994
 GasEquipment Internal Gains Nominal, F5 1-BED CORE SW GAS EQUIPMENT LOADS,RESIDENTIALLIVINGGASEQUIP,THERMAL ZONE: F5 1-BED CORE WEST,133.78,4.0,143.994,1.076,35.998,0.000,0.150,0.850,0.000,Receptacle,0.000,143.994
 GasEquipment Internal Gains Nominal, F5 1-BED N GAS EQUIPMENT LOADS,RESIDENTIALLIVINGGASEQUIP,THERMAL ZONE: F5 1-BED NORTH,345.60,10.0,148.794,0.431,14.879,0.000,0.150,0.850,0.000,Receptacle,0.000,148.794
 GasEquipment Internal Gains Nominal, F5 1-BED NE CORE GAS EQUIPMENT LOADS,RESIDENTIALLIVINGGASEQUIP,THERMAL ZONE: F5 1-BED NORTH,345.60,10.0,148.794,0.431,14.879,0.000,0.150,0.850,0.000,Receptacle,0.000,148.794
 GasEquipment Internal Gains Nominal, F5 1-BED NE OUTER GAS EQUIPMENT LOADS,RESIDENTIALLIVINGGASEQUIP,THERMAL ZONE: F5 1-BED NORTH,345.60,10.0,148.794,0.431,14.879,0.000,0.150,0.850,0.000,Receptacle,0.000,148.794
 GasEquipment Internal Gains Nominal, F5 1-BED NW CORE GAS EQUIPMENT LOADS,RESIDENTIALLIVINGGASEQUIP,THERMAL ZONE: F5 1-BED NORTH,345.60,10.0,148.794,0.431,14.879,0.000,0.150,0.850,0.000,Receptacle,0.000,148.794
 GasEquipment Internal Gains Nominal, F5 1-BED NW OUTER GAS EQUIPMENT LOADS,RESIDENTIALLIVINGGASEQUIP,THERMAL ZONE: F5 1-BED NORTH,345.60,10.0,148.794,0.431,14.879,0.000,0.150,0.850,0.000,Receptacle,0.000,148.794
 GasEquipment Internal Gains Nominal, F5 2-BED CORE NE GAS EQUIPMENT LOADS,RESIDENTIALLIVINGGASEQUIP,THERMAL ZONE: F5 2-BED CORE NE-NW,200.67,6.0,215.991,1.076,35.998,0.000,0.150,0.850,0.000,Receptacle,0.000,215.991
 GasEquipment Internal Gains Nominal, F5 2-BED CORE NW GAS EQUIPMENT LOADS,RESIDENTIALLIVINGGASEQUIP,THERMAL ZONE: F5 2-BED CORE NE-NW,200.67,6.0,215.991,1.076,35.998,0.000,0.150,0.850,0.000,Receptacle,0.000,215.991
 GasEquipment Internal Gains Nominal, F5 2-BED NE GAS EQUIPMENT LOADS,RESIDENTIALLIVINGGASEQUIP,THERMAL ZONE: F5 2-BED EAST,301.01,9.0,215.991,0.718,23.999,0.000,0.150,0.850,0.000,Receptacle,0.000,215.991
 GasEquipment Internal Gains Nominal, F5 2-BED SE CORE GAS EQUIPMENT LOADS,RESIDENTIALLIVINGGASEQUIP,THERMAL ZONE: F5 2-BED EAST,301.01,9.0,215.991,0.718,23.999,0.000,0.150,0.850,0.000,Receptacle,0.000,215.991
 GasEquipment Internal Gains Nominal, F5 2-BED SE GAS EQUIPMENT LOADS,RESIDENTIALLIVINGGASEQUIP,THERMAL ZONE: F5 2-BED EAST,301.01,9.0,215.991,0.718,23.999,0.000,0.150,0.850,0.000,Receptacle,0.000,215.991
 GasEquipment Internal Gains Nominal, F5 2-BED NW GAS EQUIPMENT LOADS,RESIDENTIALLIVINGGASEQUIP,THERMAL ZONE: F5 2-BED WEST,301.01,9.0,215.991,0.718,23.999,0.000,0.150,0.850,0.000,Receptacle,0.000,215.991
 GasEquipment Internal Gains Nominal, F5 2-BED SW CORE GAS EQUIPMENT LOADS,RESIDENTIALLIVINGGASEQUIP,THERMAL ZONE: F5 2-BED WEST,301.01,9.0,215.991,0.718,23.999,0.000,0.150,0.850,0.000,Receptacle,0.000,215.991
 GasEquipment Internal Gains Nominal, F5 2-BED SW GAS EQUIPMENT LOADS,RESIDENTIALLIVINGGASEQUIP,THERMAL ZONE: F5 2-BED WEST,301.01,9.0,215.991,0.718,23.999,0.000,0.150,0.850,0.000,Receptacle,0.000,215.991
 GasEquipment Internal Gains Nominal, F5 3-BED NE GAS EQUIPMENT LOADS,RESIDENTIALLIVINGGASEQUIP,THERMAL ZONE: F5 3-BED NE,130.99,4.0,281.988,2.153,70.497,0.000,0.150,0.850,0.000,Receptacle,0.000,281.988
 GasEquipment Internal Gains Nominal, F5 3-BED NW GAS EQUIPMENT LOADS,RESIDENTIALLIVINGGASEQUIP,THERMAL ZONE: F5 3-BED NW,130.99,4.0,281.988,2.153,70.497,0.000,0.150,0.850,0.000,Receptacle,0.000,281.988
 GasEquipment Internal Gains Nominal, F5 LAUNDRY GAS EQUIPMENT LOADS,OFFICEGASEQUIP,THERMAL ZONE: F5 CORRIDOR,256.41,13.5,39.598,0.154,2.925,0.000,0.150,0.850,0.000,Receptacle,0.000,39.598
 GasEquipment Internal Gains Nominal, F5 STUDIO SE GAS EQUIPMENT LOADS,RESIDENTIALLIVINGGASEQUIP,THERMAL ZONE: F5 STUDIO SE,50.17,2.0,107.996,2.153,53.998,0.000,0.150,0.850,0.000,Receptacle,0.000,107.996
[...]
 Warmup Convergence Information,THERMAL ZONE: F2-4 2-BED EAST,SizingPeriod: RIVERSIDE-MUNI NOV CLG 0.4% CONDNS DB=>MCWB,1.8780436465E-009,4.6820315360E-009,Pass,Pass,1.4843819204E-002,1.9696515812E-002,Pass,Pass
 Warmup Convergence Information,THERMAL ZONE: F2-4 2-BED WEST,SizingPeriod: RIVERSIDE-MUNI NOV CLG 0.4% CONDNS DB=>MCWB,1.9780760733E-009,4.7455487620E-009,Pass,Pass,1.7413982256E-002,1.8619268720E-002,Pass,Pass
 Warmup Convergence Information,THERMAL ZONE: F2-4 3-BED NE,SizingPeriod: RIVERSIDE-MUNI NOV CLG 0.4% CONDNS DB=>MCWB,1.8596492494E-009,4.8744512556E-009,Pass,Pass,1.2518498076E-002,1.7629397596E-002,Pass,Pass
 Warmup Convergence Information,THERMAL ZONE: F2-4 3-BED NW,SizingPeriod: RIVERSIDE-MUNI NOV CLG 0.4% CONDNS DB=>MCWB,1.9172861447E-009,4.9083141341E-009,Pass,Pass,1.4844099774E-002,1.7853272062E-002,Pass,Pass
 Warmup Convergence Information,THERMAL ZONE: F2-4 CORRIDOR,SizingPeriod: RIVERSIDE-MUNI NOV CLG 0.4% CONDNS DB=>MCWB,6.3407005813E-002,0.2594778666,Pass,Pass,4.4843036312E-002,0.2006761981,Pass,Pass
 Warmup Convergence Information,THERMAL ZONE: F2-4 STUDIO SE,SizingPeriod: RIVERSIDE-MUNI NOV CLG 0.4% CONDNS DB=>MCWB,2.7263035533E-009,5.6581718457E-009,Pass,Pass,2.6911607820E-002,2.8744193626E-002,Pass,Pass
 Warmup Convergence Information,THERMAL ZONE: F2-4 STUDIO SW,SizingPeriod: RIVERSIDE-MUNI NOV CLG 0.4% CONDNS DB=>MCWB,2.6928533847E-009,5.5848339146E-009,Pass,Pass,2.5761818283E-002,2.9619737918E-002,Pass,Pass
 Warmup Convergence Information,THERMAL ZONE: F5 1-BED CORE EAST,SizingPeriod: RIVERSIDE-MUNI NOV CLG 0.4% CONDNS DB=>MCWB,1.9367195255E-009,4.7641733853E-009,Pass,Pass,2.0597437343E-002,2.2058751186E-002,Pass,Pass
 Warmup Convergence Information,THERMAL ZONE: F5 1-BED CORE N,SizingPeriod: RIVERSIDE-MUNI NOV CLG 0.4% CONDNS DB=>MCWB,2.0078925189E-009,4.2939181262E-009,Pass,Pass,2.3241322762E-002,2.3885409176E-002,Pass,Pass
 Warmup Convergence Information,THERMAL ZONE: F5 1-BED CORE WEST,SizingPeriod: RIVERSIDE-MUNI NOV CLG 0.4% CONDNS DB=>MCWB,1.8079041227E-009,4.6576959873E-009,Pass,Pass,1.5871693062E-002,2.1419252678E-002,Pass,Pass
 Warmup Convergence Information,THERMAL ZONE: F5 1-BED NORTH,SizingPeriod: RIVERSIDE-MUNI NOV CLG 0.4% CONDNS DB=>MCWB,1.3638292347E-009,3.5669348212E-009,Pass,Pass,7.9962964589E-003,6.8696270473E-003,Pass,Pass
 Warmup Convergence Information,THERMAL ZONE: F5 2-BED CORE NE-NW,SizingPeriod: RIVERSIDE-MUNI NOV CLG 0.4% CONDNS DB=>MCWB,1.3667412387E-009,3.0907914635E-009,Pass,Pass,1.3279255920E-002,1.1216316810E-002,Pass,Pass
 Warmup Convergence Information,THERMAL ZONE: F5 2-BED EAST,SizingPeriod: RIVERSIDE-MUNI NOV CLG 0.4% CONDNS DB=>MCWB,1.8558537300E-009,4.6279847708E-009,Pass,Pass,1.6833507381E-002,2.1862838037E-002,Pass,Pass
 Warmup Convergence Information,THERMAL ZONE: F5 2-BED WEST,SizingPeriod: RIVERSIDE-MUNI NOV CLG 0.4% CONDNS DB=>MCWB,2.0090227260E-009,4.7755327314E-009,Pass,Pass,2.1129042743E-002,2.0815181785E-002,Pass,Pass
 Warmup Convergence Information,THERMAL ZONE: F5 3-BED NE,SizingPeriod: RIVERSIDE-MUNI NOV CLG 0.4% CONDNS DB=>MCWB,1.8337983354E-009,4.7965092907E-009,Pass,Pass,1.4085566049E-002,1.8879845891E-002,Pass,Pass
 Warmup Convergence Information,THERMAL ZONE: F5 3-BED NW,SizingPeriod: RIVERSIDE-MUNI NOV CLG 0.4% CONDNS DB=>MCWB,1.9494074873E-009,4.9084799709E-009,Pass,Pass,1.8424362108E-002,1.8994584823E-002,Pass,Pass
 Warmup Convergence Information,THERMAL ZONE: F5 CORRIDOR,SizingPeriod: RIVERSIDE-MUNI NOV CLG 0.4% CONDNS DB=>MCWB,6.5013469874E-002,0.2651561585,Pass,Pass,5.0471464797E-002,0.2200379037,Pass,Pass
 Warmup Convergence Information,THERMAL ZONE: F5 STUDIO SE,SizingPeriod: RIVERSIDE-MUNI NOV CLG 0.4% CONDNS DB=>MCWB,2.6524263526E-009,5.3678022804E-009,Pass,Pass,2.9957652619E-002,3.2324210419E-002,Pass,Pass
 Warmup Convergence Information,THERMAL ZONE: F5 STUDIO SW,SizingPeriod: RIVERSIDE-MUNI NOV CLG 0.4% CONDNS DB=>MCWB,2.6244711589E-009,5.2944440917E-009,Pass,Pass,2.8436620694E-002,3.2854184186E-002,Pass,Pass
 Warmup Convergence Information,THERMAL ZONE: PARKING GARAGE,SizingPeriod: RIVERSIDE-MUNI NOV CLG 0.4% CONDNS DB=>MCWB,2.6230440201E-003,2.7508877357E-003,Pass,Pass,0.0000000000,0.0000000000,Pass,Pass
Environment,RIVERSIDE-MUNI OCT CLG 0.4% CONDNS DB=>MCWB,SizingPeriod:DesignDay,10/21,10/21,SummerDesignDay,1,N/A,N/A,N/A,N/A,N/A,N/A
Environment:Daylight Saving,No,SizingPeriod:DesignDay
Environment:Design Day Data,36.20,16.20,DefaultMultipliers,98287,225,3.0,0.00,No,No
Environment:Design Day Misc,294,1191.2,0.1597,7.3069E-002,1.0,15.18,-10.4,ASHRAETau
Environment:WarmupDays,  6
 Warmup Convergence Information,THERMAL ZONE: F1 BUSINESS CENTER,SizingPeriod: RIVERSIDE-MUNI OCT CLG 0.4% CONDNS DB=>MCWB,0.1159685499,0.5660621314,Pass,Pass,3.9922624867E-002,0.1612823773,Pass,Pass
 Warmup Convergence Information,THERMAL ZONE: F1 CORRIDOR,SizingPeriod: RIVERSIDE-MUNI OCT CLG 0.4% CONDNS DB=>MCWB,8.2218737757E-002,0.3476196675,Pass,Pass,3.1959162495E-002,0.1059131518,Pass,Pass
 Warmup Convergence Information,THERMAL ZONE: F1 FITNESS CENTER,SizingPeriod: RIVERSIDE-MUNI OCT CLG 0.4% CONDNS DB=>MCWB,2.9327924657E-002,7.6464454049E-002,Pass,Pass,7.4243035208E-003,3.3843415439E-002,Pass,Pass
 Warmup Convergence Information,THERMAL ZONE: F1 LEASING OFFICE,SizingPeriod: RIVERSIDE-MUNI OCT CLG 0.4% CONDNS DB=>MCWB,0.1157815520,0.5191743458,Pass,Pass,4.2719038794E-002,0.1649713777,Pass,Pass
 Warmup Convergence Information,THERMAL ZONE: F1 LOUNGE,SizingPeriod: RIVERSIDE-MUNI OCT CLG 0.4% CONDNS DB=>MCWB,0.1161673429,0.5914884329,Pass,Pass,3.0862869126E-002,0.1273349633,Pass,Pass
 Warmup Convergence Information,THERMAL ZONE: F1 MECHANICAL ROOM,SizingPeriod: RIVERSIDE-MUNI OCT CLG 0.4% CONDNS DB=>MCWB,0.1157616917,0.5617670462,Pass,Pass,2.8890394829E-002,0.1088029951,Pass,Pass
 Warmup Convergence Information,THERMAL ZONE: F1 RETAIL N-NW,SizingPeriod: RIVERSIDE-MUNI OCT CLG 0.4% CONDNS DB=>MCWB,0.1161021072,0.4617906469,Pass,Pass,2.5521997129E-002,9.1587011283E-002,Pass,Pass
 Warmup Convergence Information,THERMAL ZONE: F1 RETAIL NE,SizingPeriod: RIVERSIDE-MUNI OCT CLG 0.4% CONDNS DB=>MCWB,0.1161018587,0.4689836204,Pass,Pass,2.4944387546E-002,9.0611145224E-002,Pass,Pass
 Warmup Convergence Information,THERMAL ZONE: F1 RETAIL SE,SizingPeriod: RIVERSIDE-MUNI OCT CLG 0.4% CONDNS DB=>MCWB,0.1160899341,0.4805067844,Pass,Pass,2.5694937723E-002,9.6008364455E-002,Pass,Pass
 Warmup Convergence Information,THERMAL ZONE: F1 RETAIL SW,SizingPeriod: RIVERSIDE-MUNI OCT CLG 0.4% CONDNS DB=>MCWB,0.1160955869,0.4764396237,Pass,Pass,2.5393230572E-002,9.4702439922E-002,Pass,Pass
 Warmup Convergence Information,THERMAL ZONE: F2-4 1-BED CORE EAST,SizingPeriod: RIVERSIDE-MUNI OCT CLG 0.4% CONDNS DB=>MCWB,5.0495379221E-005,1.0725487239E-004,Pass,Pass,3.2814121448E-002,2.0984275005E-002,Pass,Pass
 Warmup Convergence Information,THERMAL ZONE: F2-4 1-BED CORE N,SizingPeriod: RIVERSIDE-MUNI OCT CLG 0.4% CONDNS DB=>MCWB,5.2232438300E-005,1.0866510632E-004,Pass,Pass,2.7846955955E-002,2.0154148696E-002,Pass,Pass
 Warmup Convergence Information,THERMAL ZONE: F2-4 1-BED CORE WEST,SizingPeriod: RIVERSIDE-MUNI OCT CLG 0.4% CONDNS DB=>MCWB,5.8261928652E-005,1.1511318471E-004,Pass,Pass,2.5203864385E-002,3.1493218627E-002,Pass,Pass
 Warmup Convergence Information,THERMAL ZONE: F2-4 1-BED NORTH,SizingPeriod: RIVERSIDE-MUNI OCT CLG 0.4% CONDNS DB=>MCWB,5.0797424747E-005,1.0932558326E-004,Pass,Pass,1.7448695226E-002,9.8154936072E-003,Pass,Pass
 Warmup Convergence Information,THERMAL ZONE: F2-4 2-BED CORE NE-NW,SizingPeriod: RIVERSIDE-MUNI OCT CLG 0.4% CONDNS DB=>MCWB,5.3535525418E-005,1.1703571685E-004,Pass,Pass,1.5027138438E-002,1.1382551195E-002,Pass,Pass
 Warmup Convergence Information,THERMAL ZONE: F2-4 2-BED EAST,SizingPeriod: RIVERSIDE-MUNI OCT CLG 0.4% CONDNS DB=>MCWB,5.8848529832E-005,1.1745880676E-004,Pass,Pass,2.5760063800E-002,2.6766120927E-002,Pass,Pass
 Warmup Convergence Information,THERMAL ZONE: F2-4 2-BED WEST,SizingPeriod: RIVERSIDE-MUNI OCT CLG 0.4% CONDNS DB=>MCWB,5.2264035405E-005,1.1168180295E-004,Pass,Pass,3.2035640365E-002,1.8414447205E-002,Pass,Pass
 Warmup Convergence Information,THERMAL ZONE: F2-4 3-BED NE,SizingPeriod: RIVERSIDE-MUNI OCT CLG 0.4% CONDNS DB=>MCWB,5.8022886556E-005,1.1525217473E-004,Pass,Pass,2.5398987859E-002,2.7187803211E-002,Pass,Pass
 Warmup Convergence Information,THERMAL ZONE: F2-4 3-BED NW,SizingPeriod: RIVERSIDE-MUNI OCT CLG 0.4% CONDNS DB=>MCWB,5.0772194913E-005,1.0906144281E-004,Pass,Pass,3.3253564038E-002,1.6505336222E-002,Pass,Pass
 Warmup Convergence Information,THERMAL ZONE: F2-4 CORRIDOR,SizingPeriod: RIVERSIDE-MUNI OCT CLG 0.4% CONDNS DB=>MCWB,6.0728615999E-002,0.2389835888,Pass,Pass,4.6803711519E-002,0.1967540518,Pass,Pass
 Warmup Convergence Information,THERMAL ZONE: F2-4 STUDIO SE,SizingPeriod: RIVERSIDE-MUNI OCT CLG 0.4% CONDNS DB=>MCWB,5.9764319915E-005,1.1828401682E-004,Pass,Pass,4.7132792227E-002,2.9765835179E-002,Pass,Pass
 Warmup Convergence Information,THERMAL ZONE: F2-4 STUDIO SW,SizingPeriod: RIVERSIDE-MUNI OCT CLG 0.4% CONDNS DB=>MCWB,6.6032004896E-005,1.2707303909E-004,Pass,Pass,4.4287008117E-002,3.4290454282E-002,Pass,Pass
 Warmup Convergence Information,THERMAL ZONE: F5 1-BED CORE EAST,SizingPeriod: RIVERSIDE-MUNI OCT CLG 0.4% CONDNS DB=>MCWB,4.4387697618E-005,9.4181177960E-005,Pass,Pass,4.0956812347E-002,2.1308630169E-002,Pass,Pass
 Warmup Convergence Information,THERMAL ZONE: F5 1-BED CORE N,SizingPeriod: RIVERSIDE-MUNI OCT CLG 0.4% CONDNS DB=>MCWB,4.6834541497E-005,9.5524777743E-005,Pass,Pass,3.6275180462E-002,2.5171845052E-002,Pass,Pass
 Warmup Convergence Information,THERMAL ZONE: F5 1-BED CORE WEST,SizingPeriod: RIVERSIDE-MUNI OCT CLG 0.4% CONDNS DB=>MCWB,5.2826972365E-005,1.0285788029E-004,Pass,Pass,3.0683745037E-002,3.4055857715E-002,Pass,Pass
 Warmup Convergence Information,THERMAL ZONE: F5 1-BED NORTH,SizingPeriod: RIVERSIDE-MUNI OCT CLG 0.4% CONDNS DB=>MCWB,4.5530452679E-005,9.6622407908E-005,Pass,Pass,2.6903811353E-002,1.4568254229E-002,Pass,Pass
 Warmup Convergence Information,THERMAL ZONE: F5 2-BED CORE NE-NW,SizingPeriod: RIVERSIDE-MUNI OCT CLG 0.4% CONDNS DB=>MCWB,4.8289491411E-005,1.0452612072E-004,Pass,Pass,2.3113917331E-002,1.5778930481E-002,Pass,Pass
 Warmup Convergence Information,THERMAL ZONE: F5 2-BED EAST,SizingPeriod: RIVERSIDE-MUNI OCT CLG 0.4% CONDNS DB=>MCWB,5.3631981495E-005,1.0431281943E-004,Pass,Pass,3.3121667747E-002,3.1703422236E-002,Pass,Pass
 Warmup Convergence Information,THERMAL ZONE: F5 2-BED WEST,SizingPeriod: RIVERSIDE-MUNI OCT CLG 0.4% CONDNS DB=>MCWB,4.6347923959E-005,9.6708280018E-005,Pass,Pass,4.1079234246E-002,2.1287208227E-002,Pass,Pass
 Warmup Convergence Information,THERMAL ZONE: F5 3-BED NE,SizingPeriod: RIVERSIDE-MUNI OCT CLG 0.4% CONDNS DB=>MCWB,5.2591980548E-005,1.0193434395E-004,Pass,Pass,3.3646897025E-002,3.2404360402E-002,Pass,Pass
 Warmup Convergence Information,THERMAL ZONE: F5 3-BED NW,SizingPeriod: RIVERSIDE-MUNI OCT CLG 0.4% CONDNS DB=>MCWB,4.4903054662E-005,9.4389023783E-005,Pass,Pass,4.3009930446E-002,1.8899919362E-002,Pass,Pass
 Warmup Convergence Information,THERMAL ZONE: F5 CORRIDOR,SizingPeriod: RIVERSIDE-MUNI OCT CLG 0.4% CONDNS DB=>MCWB,5.9329912231E-002,0.2505117918,Pass,Pass,5.3285613341E-002,0.2197104255,Pass,Pass
 Warmup Convergence Information,THERMAL ZONE: F5 STUDIO SE,SizingPeriod: RIVERSIDE-MUNI OCT CLG 0.4% CONDNS DB=>MCWB,5.2800859012E-005,9.7513090042E-005,Pass,Pass,5.8777794523E-002,3.4552524011E-002,Pass,Pass
 Warmup Convergence Information,THERMAL ZONE: F5 STUDIO SW,SizingPeriod: RIVERSIDE-MUNI OCT CLG 0.4% CONDNS DB=>MCWB,5.9182460233E-005,1.0959220055E-004,Pass,Pass,5.5174093419E-002,4.0113857408E-002,Pass,Pass
 Warmup Convergence Information,THERMAL ZONE: PARKING GARAGE,SizingPeriod: RIVERSIDE-MUNI OCT CLG 0.4% CONDNS DB=>MCWB,0.1719899124,0.1114530921,Pass,Pass,0.0000000000,0.0000000000,Pass,Pass
Environment,RIVERSIDE-MUNI SEP CLG 0.4% CONDNS DB=>MCWB,SizingPeriod:DesignDay,09/21,09/21,SummerDesignDay,1,N/A,N/A,N/A,N/A,N/A,N/A
Environment:Daylight Saving,No,SizingPeriod:DesignDay
Environment:Design Day Data,39.00,15.10,DefaultMultipliers,98287,270,5.4,0.00,No,No
Environment:Design Day Misc,264,1151.1,0.1777,9.2179E-002,1.0,6.63,1.0,ASHRAETau
Environment:WarmupDays,  6
 Warmup Convergence Information,THERMAL ZONE: F1 BUSINESS CENTER,SizingPeriod: RIVERSIDE-MUNI SEP CLG 0.4% CONDNS DB=>MCWB,0.1159496156,0.5689782783,Pass,Pass,4.0256223867E-002,0.1671055807,Pass,Pass
 Warmup Convergence Information,THERMAL ZONE: F1 CORRIDOR,SizingPeriod: RIVERSIDE-MUNI SEP CLG 0.4% CONDNS DB=>MCWB,9.4402915104E-002,0.3902403764,Pass,Pass,3.4192831843E-002,0.1196032866,Pass,Pass
 Warmup Convergence Information,THERMAL ZONE: F1 FITNESS CENTER,SizingPeriod: RIVERSIDE-MUNI SEP CLG 0.4% CONDNS DB=>MCWB,2.8305692600E-002,7.3278750877E-002,Pass,Pass,6.5952181749E-003,2.0377949412E-002,Pass,Pass
 Warmup Convergence Information,THERMAL ZONE: F1 LEASING OFFICE,SizingPeriod: RIVERSIDE-MUNI SEP CLG 0.4% CONDNS DB=>MCWB,0.1157720869,0.5228772981,Pass,Pass,4.4599551569E-002,0.1765825998,Pass,Pass
 Warmup Convergence Information,THERMAL ZONE: F1 LOUNGE,SizingPeriod: RIVERSIDE-MUNI SEP CLG 0.4% CONDNS DB=>MCWB,0.1161338173,0.5902100700,Pass,Pass,3.1134207858E-002,0.1293144542,Pass,Pass
 Warmup Convergence Information,THERMAL ZONE: F1 MECHANICAL ROOM,SizingPeriod: RIVERSIDE-MUNI SEP CLG 0.4% CONDNS DB=>MCWB,0.1157567919,0.5645019741,Pass,Pass,2.9452634696E-002,0.1123658061,Pass,Pass
 Warmup Convergence Information,THERMAL ZONE: F1 RETAIL N-NW,SizingPeriod: RIVERSIDE-MUNI SEP CLG 0.4% CONDNS DB=>MCWB,0.1163203370,0.4617869550,Pass,Pass,2.5940013784E-002,9.4152765440E-002,Pass,Pass
 Warmup Convergence Information,THERMAL ZONE: F1 RETAIL NE,SizingPeriod: RIVERSIDE-MUNI SEP CLG 0.4% CONDNS DB=>MCWB,0.1163132676,0.4679376463,Pass,Pass,2.5708842006E-002,9.6432022714E-002,Pass,Pass
 Warmup Convergence Information,THERMAL ZONE: F1 RETAIL SE,SizingPeriod: RIVERSIDE-MUNI SEP CLG 0.4% CONDNS DB=>MCWB,0.1158026682,0.4804067136,Pass,Pass,2.7079252045E-002,0.1018248030,Pass,Pass
 Warmup Convergence Information,THERMAL ZONE: F1 RETAIL SW,SizingPeriod: RIVERSIDE-MUNI SEP CLG 0.4% CONDNS DB=>MCWB,0.1158268485,0.4784671361,Pass,Pass,2.7093817758E-002,0.1006622226,Pass,Pass
 Warmup Convergence Information,THERMAL ZONE: F2-4 1-BED CORE EAST,SizingPeriod: RIVERSIDE-MUNI SEP CLG 0.4% CONDNS DB=>MCWB,5.8812899114E-005,1.3222579580E-004,Pass,Pass,2.9747107185E-002,2.4518410000E-002,Pass,Pass
 Warmup Convergence Information,THERMAL ZONE: F2-4 1-BED CORE N,SizingPeriod: RIVERSIDE-MUNI SEP CLG 0.4% CONDNS DB=>MCWB,5.7953038196E-005,1.3182467466E-004,Pass,Pass,2.0757460633E-002,1.4477317753E-002,Pass,Pass
 Warmup Convergence Information,THERMAL ZONE: F2-4 1-BED CORE WEST,SizingPeriod: RIVERSIDE-MUNI SEP CLG 0.4% CONDNS DB=>MCWB,6.3276070759E-005,1.3776682125E-004,Pass,Pass,2.3293941558E-002,3.2882068593E-002,Pass,Pass
 Warmup Convergence Information,THERMAL ZONE: F2-4 1-BED NORTH,SizingPeriod: RIVERSIDE-MUNI SEP CLG 0.4% CONDNS DB=>MCWB,5.8426162780E-005,1.3415524195E-004,Pass,Pass,1.4271663006E-002,8.0186174667E-003,Pass,Pass
 Warmup Convergence Information,THERMAL ZONE: F2-4 2-BED CORE NE-NW,SizingPeriod: RIVERSIDE-MUNI SEP CLG 0.4% CONDNS DB=>MCWB,6.0130715879E-005,1.3957376427E-004,Pass,Pass,1.1428842799E-002,8.5928664787E-003,Pass,Pass
 Warmup Convergence Information,THERMAL ZONE: F2-4 2-BED EAST,SizingPeriod: RIVERSIDE-MUNI SEP CLG 0.4% CONDNS DB=>MCWB,6.7226487238E-005,1.4570423317E-004,Pass,Pass,2.1625122847E-002,2.2106336964E-002,Pass,Pass
 Warmup Convergence Information,THERMAL ZONE: F2-4 2-BED WEST,SizingPeriod: RIVERSIDE-MUNI SEP CLG 0.4% CONDNS DB=>MCWB,6.0239472312E-005,1.3746286587E-004,Pass,Pass,2.6593934650E-002,1.7276035197E-002,Pass,Pass
 Warmup Convergence Information,THERMAL ZONE: F2-4 3-BED NE,SizingPeriod: RIVERSIDE-MUNI SEP CLG 0.4% CONDNS DB=>MCWB,6.7261358908E-005,1.4547649035E-004,Pass,Pass,2.1502598806E-002,2.2660764807E-002,Pass,Pass
 Warmup Convergence Information,THERMAL ZONE: F2-4 3-BED NW,SizingPeriod: RIVERSIDE-MUNI SEP CLG 0.4% CONDNS DB=>MCWB,6.0183988574E-005,1.3716039143E-004,Pass,Pass,2.7520989507E-002,1.6147659101E-002,Pass,Pass
 Warmup Convergence Information,THERMAL ZONE: F2-4 CORRIDOR,SizingPeriod: RIVERSIDE-MUNI SEP CLG 0.4% CONDNS DB=>MCWB,6.3571053068E-002,0.2488197015,Pass,Pass,4.5889903277E-002,0.2002272313,Pass,Pass
 Warmup Convergence Information,THERMAL ZONE: F2-4 STUDIO SE,SizingPeriod: RIVERSIDE-MUNI SEP CLG 0.4% CONDNS DB=>MCWB,6.7707818829E-005,1.5217720316E-004,Pass,Pass,3.4845685941E-002,2.2889388458E-002,Pass,Pass
 Warmup Convergence Information,THERMAL ZONE: F2-4 STUDIO SW,SizingPeriod: RIVERSIDE-MUNI SEP CLG 0.4% CONDNS DB=>MCWB,7.2346436070E-005,1.5682338830E-004,Pass,Pass,3.1998912684E-002,2.6421371182E-002,Pass,Pass
 Warmup Convergence Information,THERMAL ZONE: F5 1-BED CORE EAST,SizingPeriod: RIVERSIDE-MUNI SEP CLG 0.4% CONDNS DB=>MCWB,5.2889317294E-005,1.2031952530E-004,Pass,Pass,3.2952422785E-002,2.0949873529E-002,Pass,Pass
 Warmup Convergence Information,THERMAL ZONE: F5 1-BED CORE N,SizingPeriod: RIVERSIDE-MUNI SEP CLG 0.4% CONDNS DB=>MCWB,5.3229574346E-005,1.2047620740E-004,Pass,Pass,2.6207206146E-002,1.7924632465E-002,Pass,Pass
 Warmup Convergence Information,THERMAL ZONE: F5 1-BED CORE WEST,SizingPeriod: RIVERSIDE-MUNI SEP CLG 0.4% CONDNS DB=>MCWB,5.9495887306E-005,1.2651603251E-004,Pass,Pass,2.5165217840E-002,2.9896391377E-002,Pass,Pass
 Warmup Convergence Information,THERMAL ZONE: F5 1-BED NORTH,SizingPeriod: RIVERSIDE-MUNI SEP CLG 0.4% CONDNS DB=>MCWB,5.3599287972E-005,1.2231017703E-004,Pass,Pass,2.0572404367E-002,1.1356423048E-002,Pass,Pass
 Warmup Convergence Information,THERMAL ZONE: F5 2-BED CORE NE-NW,SizingPeriod: RIVERSIDE-MUNI SEP CLG 0.4% CONDNS DB=>MCWB,5.5335910215E-005,1.2796133175E-004,Pass,Pass,1.7410446021E-002,1.1978383587E-002,Pass,Pass
 Warmup Convergence Information,THERMAL ZONE: F5 2-BED EAST,SizingPeriod: RIVERSIDE-MUNI SEP CLG 0.4% CONDNS DB=>MCWB,6.2224567697E-005,1.3351229483E-004,Pass,Pass,2.5301646432E-002,2.5288230710E-002,Pass,Pass
 Warmup Convergence Information,THERMAL ZONE: F5 2-BED WEST,SizingPeriod: RIVERSIDE-MUNI SEP CLG 0.4% CONDNS DB=>MCWB,5.4763679695E-005,1.2418033474E-004,Pass,Pass,3.2223598741E-002,1.8906480565E-002,Pass,Pass
 Warmup Convergence Information,THERMAL ZONE: F5 3-BED NE,SizingPeriod: RIVERSIDE-MUNI SEP CLG 0.4% CONDNS DB=>MCWB,6.2254630360E-005,1.3320433546E-004,Pass,Pass,2.5535522917E-002,2.5947670119E-002,Pass,Pass
 Warmup Convergence Information,THERMAL ZONE: F5 3-BED NW,SizingPeriod: RIVERSIDE-MUNI SEP CLG 0.4% CONDNS DB=>MCWB,5.4714010893E-005,1.2392976598E-004,Pass,Pass,3.3313124903E-002,1.7478147658E-002,Pass,Pass
 Warmup Convergence Information,THERMAL ZONE: F5 CORRIDOR,SizingPeriod: RIVERSIDE-MUNI SEP CLG 0.4% CONDNS DB=>MCWB,5.8917372500E-002,0.2551347812,Pass,Pass,4.9871380036E-002,0.2108095871,Pass,Pass
 Warmup Convergence Information,THERMAL ZONE: F5 STUDIO SE,SizingPeriod: RIVERSIDE-MUNI SEP CLG 0.4% CONDNS DB=>MCWB,6.2906180352E-005,1.3961721724E-004,Pass,Pass,4.0093720340E-002,2.5517145484E-002,Pass,Pass
 Warmup Convergence Information,THERMAL ZONE: F5 STUDIO SW,SizingPeriod: RIVERSIDE-MUNI SEP CLG 0.4% CONDNS DB=>MCWB,6.7756705285E-005,1.4485795973E-004,Pass,Pass,3.6876487195E-002,2.9321664453E-002,Pass,Pass
 Warmup Convergence Information,THERMAL ZONE: PARKING GARAGE,SizingPeriod: RIVERSIDE-MUNI SEP CLG 0.4% CONDNS DB=>MCWB,0.1599131373,0.1036679401,Pass,Pass,0.0000000000,0.0000000000,Pass,Pass
! <Program Control Information:Threads/Parallel Sims>, Threading Supported,Maximum Number of Threads, Env Set Threads (OMP_NUM_THREADS), EP Env Set Threads (EP_OMP_NUM_THREADS), IDF Set Threads, Number of Threads Used (Interior Radiant Exchange), Number Nominal Surfaces, Number Parallel Sims
Program Control:Threads/Parallel Sims, No,1, N/A, N/A, N/A, N/A, N/A, N/A
End of Data
