Program Version,EnergyPlus, Version 9.0.1-bb7ca4f0da, YMD=2019.12.18 16:18
! <Version>, Version ID
 Version, 9.0
! <Timesteps per Hour>, #TimeSteps, Minutes per TimeStep {minutes}
 Timesteps per Hour,  4, 15
! <System Convergence Limits>, Minimum System TimeStep {minutes}, Max HVAC Iterations, Minimum Plant Iterations, Maximum Plant Iterations
 System Convergence Limits, 1, 20, 2, 8
! <Simulation Control>, Do Zone Sizing, Do System Sizing, Do Plant Sizing, Do Design Days, Do Weather Simulation, Do HVAC Sizing Simulation
 Simulation Control, Yes, Yes, Yes, No, Yes, No
! <Output Reporting Tolerances>, Tolerance for Time Heating Setpoint Not Met, Tolerance for Zone Cooling Setpoint Not Met Time
 Output Reporting Tolerances, 0.556, 0.556, 
! <Site:GroundTemperature:BuildingSurface>,Jan{C},Feb{C},Mar{C},Apr{C},May{C},Jun{C},Jul{C},Aug{C},Sep{C},Oct{C},Nov{C},Dec{C}
 Site:GroundTemperature:BuildingSurface,  18.00,  18.00,  18.00,  18.00,  18.00,  18.00,  18.00,  18.00,  18.00,  18.00,  18.00,  18.00
! <Site:GroundTemperature:FCfactorMethod>,Jan{C},Feb{C},Mar{C},Apr{C},May{C},Jun{C},Jul{C},Aug{C},Sep{C},Oct{C},Nov{C},Dec{C}
 Site:GroundTemperature:FCfactorMethod,  13.01,  15.33,  18.01,  20.00,  22.78,  23.37,  22.42,  20.16,  17.20,  14.45,  12.50,  11.99
! <Site:GroundTemperature:Shallow>,Jan{C},Feb{C},Mar{C},Apr{C},May{C},Jun{C},Jul{C},Aug{C},Sep{C},Oct{C},Nov{C},Dec{C}
 Site:GroundTemperature:Shallow,  13.00,  13.00,  13.00,  13.00,  13.00,  13.00,  13.00,  13.00,  13.00,  13.00,  13.00,  13.00
! <Site:GroundTemperature:Deep>,Jan{C},Feb{C},Mar{C},Apr{C},May{C},Jun{C},Jul{C},Aug{C},Sep{C},Oct{C},Nov{C},Dec{C}
 Site:GroundTemperature:Deep,  16.00,  16.00,  16.00,  16.00,  16.00,  16.00,  16.00,  16.00,  16.00,  16.00,  16.00,  16.00
! <Site:GroundReflectance>,Jan{dimensionless},Feb{dimensionless},Mar{dimensionless},Apr{dimensionless},May{dimensionless},Jun{dimensionless},Jul{dimensionless},Aug{dimensionless},Sep{dimensionless},Oct{dimensionless},Nov{dimensionless},Dec{dimensionless}
 Site:GroundReflectance,  0.20,  0.20,  0.20,  0.20,  0.20,  0.20,  0.20,  0.20,  0.20,  0.20,  0.20,  0.20
! <Site:GroundReflectance:SnowModifier>, Normal, Daylighting {dimensionless}
 Site:GroundReflectance:SnowModifier,   1.000,   1.000
! <Site:GroundReflectance:Snow>,Jan{dimensionless},Feb{dimensionless},Mar{dimensionless},Apr{dimensionless},May{dimensionless},Jun{dimensionless},Jul{dimensionless},Aug{dimensionless},Sep{dimensionless},Oct{dimensionless},Nov{dimensionless},Dec{dimensionless}
 Site:GroundReflectance:Snow,  0.20,  0.20,  0.20,  0.20,  0.20,  0.20,  0.20,  0.20,  0.20,  0.20,  0.20,  0.20
! <Site:GroundReflectance:Snow:Daylighting>,Jan{dimensionless},Feb{dimensionless},Mar{dimensionless},Apr{dimensionless},May{dimensionless},Jun{dimensionless},Jul{dimensionless},Aug{dimensionless},Sep{dimensionless},Oct{dimensionless},Nov{dimensionless},Dec{dimensionless}
 Site:GroundReflectance:Snow:Daylighting,  0.20,  0.20,  0.20,  0.20,  0.20,  0.20,  0.20,  0.20,  0.20,  0.20,  0.20,  0.20
! <Environment:Weather Station>,Wind Sensor Height Above Ground {m},Wind Speed Profile Exponent {},Wind Speed Profile Boundary Layer Thickness {m},Air Temperature Sensor Height Above Ground {m},Wind Speed Modifier Coefficient-Internal,Temperature Modifier Coefficient-Internal
Environment:Weather Station,10.000,0.140,270.000,1.500,1.586,9.750E-003
! <Site:Location>, Location Name, Latitude {N+/S- Deg}, Longitude {E+/W- Deg},  Time Zone Number {GMT+/-}, Elevation {m},  Standard Pressure at Elevation {Pa}, Standard RhoAir at Elevation
Site:Location,RIVERSIDE-MUNI - USA Custom-722869 WMO#=722869,33.95,-117.44,-8.00,253.00,98322,1.1686
! <Site Water Mains Temperature Information>,Calculation Method{},Water Mains Temperature Schedule Name{},Annual Average Outdoor Air Temperature{C},Maximum Difference In Monthly Average Outdoor Air Temperatures{deltaC},Fixed Default Water Mains Temperature{C}
Site Water Mains Temperature Information,Schedule,WATERMAINCZ10,0.00,0.00,NA
! <Building Information>, Building Name,North Axis {deg},Terrain,  Loads Convergence Tolerance Value,Temperature Convergence Tolerance Value,  Solar Distribution,Maximum Number of Warmup Days,Minimum Number of Warmup Days
 Building Information,Building 1,0.000,Suburbs,4.00000E-002,0.40000,FullExterior,50,6
! <Inside Convection Algorithm>, Algorithm {Simple | TARP | CeilingDiffuser | AdaptiveConvectionAlgorithm}
Inside Convection Algorithm,TARP
! <Outside Convection Algorithm>, Algorithm {SimpleCombined | TARP | MoWitt | DOE-2 | AdaptiveConvectionAlgorithm}
Outside Convection Algorithm,DOE-2
! <Sky Radiance Distribution>, Value {Anisotropic}
Sky Radiance Distribution,Anisotropic
! <Zone Air Solution Algorithm>, Value {ThirdOrderBackwardDifference | AnalyticalSolution | EulerMethod}
 Zone Air Solution Algorithm, ThirdOrderBackwardDifference
! <Zone Air Carbon Dioxide Balance Simulation>, Simulation {Yes/No}, Carbon Dioxide Concentration
 Zone Air Carbon Dioxide Balance Simulation, No,N/A
! <Zone Air Generic Contaminant Balance Simulation>, Simulation {Yes/No}, Generic Contaminant Concentration
 Zone Air Generic Contaminant Balance Simulation, No,N/A
! <Zone Air Mass Flow Balance Simulation>, Enforce Mass Balance, Adjust Zone Mixing, Adjust Zone Infiltration {AddInfiltration | AdjustInfiltration | None}, Infiltration Zones {MixingSourceZonesOnly | AllZones}
 Zone Air Mass Flow Balance Simulation, No,N/A,N/A,N/A
! <HVACSystemRootFindingAlgorithm>, Value {RegulaFalsi | Bisection | BisectionThenRegulaFalsi | RegulaFalsiThenBisection}
 HVACSystemRootFindingAlgorithm, RegulaFalsi
! <Environment:Site Atmospheric Variation>,Wind Speed Profile Exponent {},Wind Speed Profile Boundary Layer Thickness {m},Air Temperature Gradient Coefficient {K/m}
Environment:Site Atmospheric Variation,0.220,370.000,6.500000E-003
! <Surface Geometry>,Starting Corner,Vertex Input Direction,Coordinate System,Daylight Reference Point Coordinate System,Rectangular (Simple) Surface Coordinate System
 Surface Geometry,UpperLeftCorner,Counterclockwise,RelativeCoordinateSystem,RelativeCoordinateSystem,RelativeToZoneOrigin
! <Surface Heat Transfer Algorithm>, Value {CTF - ConductionTransferFunction | EMPD - MoisturePenetrationDepthConductionTransferFunction | CondFD - ConductionFiniteDifference | HAMT - CombinedHeatAndMoistureFiniteElement} - Description,Inside Surface Max Temperature Limit{C}, Surface Convection Coefficient Lower Limit {W/m2-K}, Surface Convection Coefficient Upper Limit {W/m2-K}
Surface Heat Transfer Algorithm, CTF - ConductionTransferFunction,200,0.10,1000.0
! <Shading Summary>, Number of Fixed Detached Shades, Number of Building Detached Shades, Number of Attached Shades
 Shading Summary,0,0,0
! <Zone Summary>, Number of Zones, Number of Zone Surfaces, Number of SubSurfaces
 Zone Summary,35,677,92
! <Zone Information>,Zone Name,North Axis {deg},Origin X-Coordinate {m},Origin Y-Coordinate {m},Origin Z-Coordinate {m},Centroid X-Coordinate {m},Centroid Y-Coordinate {m},Centroid Z-Coordinate {m},Type,Zone Multiplier,Zone List Multiplier,Minimum X {m},Maximum X {m},Minimum Y {m},Maximum Y {m},Minimum Z {m},Maximum Z {m},Ceiling Height {m},Volume {m3},Zone Inside Convection Algorithm {Simple-Detailed-CeilingDiffuser-TrombeWall},Zone Outside Convection Algorithm {Simple-Detailed-Tarp-MoWitt-DOE-2-BLAST}, Floor Area {m2},Exterior Gross Wall Area {m2},Exterior Net Wall Area {m2},Exterior Window Area {m2}, Number of Surfaces, Number of SubSurfaces, Number of Shading SubSurfaces,  Part of Total Building Area
 Zone Information, THERMAL ZONE: F1 BUSINESS CENTER,0.0,0.00,0.00,0.00,40.23,17.31,1.13,1,1,1,36.58,43.89,14.63,19.20,0.00,3.05,3.05,101.94,TARP,DOE-2,33.45,13.94,12.54,1.39,6,1,0,Yes
 Zone Information, THERMAL ZONE: F1 CORRIDOR,0.0,0.00,0.00,0.00,28.97,29.67,1.10,1,1,1,4.57,45.72,14.63,47.24,0.00,3.05,3.05,543.68,TARP,DOE-2,178.37,80.83,72.74,8.08,33,4,0,Yes
 Zone Information, THERMAL ZONE: F1 FITNESS CENTER,0.0,0.00,0.00,0.00,50.29,24.38,0.87,1,1,1,45.72,54.86,19.81,28.96,0.00,3.05,3.05,254.85,TARP,DOE-2,83.61,27.87,25.08,2.79,7,1,0,Yes
 Zone Information, THERMAL ZONE: F1 LEASING OFFICE,0.0,0.00,0.00,0.00,2.29,25.45,1.05,1,1,1,0.00,4.57,21.95,28.96,0.00,3.05,3.05,97.69,TARP,DOE-2,32.05,21.37,19.23,2.14,6,1,0,Yes
 Zone Information, THERMAL ZONE: F1 LOUNGE,0.0,0.00,0.00,0.00,45.47,19.55,0.93,1,1,1,36.58,54.86,14.63,23.77,0.00,3.05,3.05,297.33,TARP,DOE-2,97.55,29.73,26.76,2.97,9,2,0,Yes
 Zone Information, THERMAL ZONE: F1 MECHANICAL ROOM,0.0,0.00,0.00,0.00,8.69,24.38,1.01,1,1,1,4.57,12.80,21.95,26.82,0.00,3.05,3.05,122.33,TARP,DOE-2,40.13,0.00,0.00,0.00,6,0,0,Yes
 Zone Information, THERMAL ZONE: F1 RETAIL N-NW,0.0,0.00,0.00,0.00,15.76,37.66,0.54,1,1,1,0.00,30.78,28.96,47.24,0.00,3.05,3.05,1694.76,TARP,DOE-2,556.02,149.57,134.62,14.96,21,5,0,Yes
 Zone Information, THERMAL ZONE: F1 RETAIL NE,0.0,0.00,0.00,0.00,43.89,38.10,0.58,1,1,1,32.92,54.86,28.96,47.24,0.00,3.05,3.05,1223.29,TARP,DOE-2,401.34,122.63,110.37,12.26,12,4,0,Yes
 Zone Information, THERMAL ZONE: F1 RETAIL SE,0.0,0.00,0.00,0.00,45.72,7.32,0.65,1,1,1,36.58,54.86,0.00,14.63,0.00,3.05,3.05,815.53,TARP,DOE-2,267.56,144.93,130.44,14.49,9,5,0,Yes
 Zone Information, THERMAL ZONE: F1 RETAIL SW,0.0,0.00,0.00,0.00,9.51,11.72,0.59,1,1,1,0.00,18.29,0.00,23.77,0.00,3.05,3.05,1253.87,TARP,DOE-2,411.37,195.10,175.59,19.51,14,7,0,Yes
 Zone Information, THERMAL ZONE: F2-4 1-BED CORE EAST,0.0,0.00,0.00,0.00,40.23,14.63,3.87,1,3,1,36.58,43.89,5.49,23.77,3.05,6.10,3.05,407.76,TARP,DOE-2,133.78,55.74,41.79,13.95,11,2,0,Yes
 Zone Information, THERMAL ZONE: F2-4 1-BED CORE N,0.0,0.00,0.00,0.00,25.60,31.39,3.96,1,3,1,21.95,29.26,26.82,35.97,3.05,6.10,3.05,203.88,TARP,DOE-2,66.89,22.30,16.72,5.57,9,1,0,Yes
 Zone Information, THERMAL ZONE: F2-4 1-BED CORE WEST,0.0,0.00,0.00,0.00,14.47,14.87,3.87,1,3,1,10.97,18.29,5.49,23.77,3.05,6.10,3.05,407.76,TARP,DOE-2,133.78,55.74,41.79,13.95,11,2,0,Yes
 Zone Information, THERMAL ZONE: F2-4 1-BED NORTH,0.0,0.00,0.00,0.00,27.43,42.52,3.73,1,3,1,9.14,45.72,37.80,47.24,3.05,6.10,3.05,1053.39,TARP,DOE-2,345.60,111.48,83.61,27.87,22,5,0,Yes
 Zone Information, THERMAL ZONE: F2-4 2-BED CORE NE-NW,0.0,0.00,0.00,0.00,27.43,31.39,3.89,1,3,1,10.97,43.89,26.82,35.97,3.05,6.10,3.05,611.64,TARP,DOE-2,200.67,22.30,16.79,5.50,19,2,0,Yes
 Zone Information, THERMAL ZONE: F2-4 2-BED EAST,0.0,0.00,0.00,0.00,50.29,16.46,3.75,1,3,1,45.72,54.86,0.00,32.92,3.05,6.10,3.05,917.47,TARP,DOE-2,301.01,128.21,96.09,32.12,17,4,0,Yes
 Zone Information, THERMAL ZONE: F2-4 2-BED WEST,0.0,0.00,0.00,0.00,4.57,16.46,3.75,1,3,1,0.00,9.14,0.00,32.92,3.05,6.10,3.05,917.47,TARP,DOE-2,301.01,128.21,96.09,32.12,18,4,0,Yes
 Zone Information, THERMAL ZONE: F2-4 3-BED NE,0.0,0.00,0.00,0.00,50.29,40.08,3.84,1,3,1,45.72,54.86,32.92,47.24,3.05,6.10,3.05,399.27,TARP,DOE-2,130.99,71.54,53.60,17.93,7,2,0,Yes
 Zone Information, THERMAL ZONE: F2-4 3-BED NW,0.0,0.00,0.00,0.00,4.57,40.08,3.84,1,3,1,0.00,9.14,32.92,47.24,3.05,6.10,3.05,399.27,TARP,DOE-2,130.99,71.54,53.60,17.93,7,2,0,Yes
 Zone Information, THERMAL ZONE: F2-4 CORRIDOR,0.0,0.00,0.00,0.00,27.73,26.69,4.18,1,3,1,9.14,45.72,5.49,37.80,3.05,6.10,3.05,781.54,TARP,DOE-2,256.41,29.73,22.38,7.35,62,3,0,Yes
 Zone Information, THERMAL ZONE: F2-4 STUDIO SE,0.0,0.00,0.00,0.00,41.15,2.74,4.02,1,3,1,36.58,45.72,0.00,5.49,3.05,6.10,3.05,152.91,TARP,DOE-2,50.17,44.59,33.45,11.15,6,2,0,Yes
 Zone Information, THERMAL ZONE: F2-4 STUDIO SW,0.0,0.00,0.00,0.00,13.72,2.74,4.02,1,3,1,9.14,18.29,0.00,5.49,3.05,6.10,3.05,152.91,TARP,DOE-2,50.17,44.59,33.45,11.15,6,2,0,Yes
 Zone Information, THERMAL ZONE: F5 1-BED CORE EAST,0.0,0.00,0.00,0.00,40.23,14.63,13.72,1,1,1,36.58,43.89,5.49,23.77,12.19,15.24,3.05,407.76,TARP,DOE-2,133.78,55.74,41.79,13.95,11,2,0,Yes
 Zone Information, THERMAL ZONE: F5 1-BED CORE N,0.0,0.00,0.00,0.00,25.60,31.39,13.72,1,1,1,21.95,29.26,26.82,35.97,12.19,15.24,3.05,203.88,TARP,DOE-2,66.89,22.30,16.72,5.57,9,1,0,Yes
 Zone Information, THERMAL ZONE: F5 1-BED CORE WEST,0.0,0.00,0.00,0.00,14.63,14.63,13.72,1,1,1,10.97,18.29,5.49,23.77,12.19,15.24,3.05,407.76,TARP,DOE-2,133.78,55.74,41.79,13.95,11,2,0,Yes
 Zone Information, THERMAL ZONE: F5 1-BED NORTH,0.0,0.00,0.00,0.00,27.43,42.52,13.72,1,1,1,9.14,45.72,37.80,47.24,12.19,15.24,3.05,1053.39,TARP,DOE-2,345.60,111.48,83.61,27.87,22,5,0,Yes
 Zone Information, THERMAL ZONE: F5 2-BED CORE NE-NW,0.0,0.00,0.00,0.00,27.43,31.39,13.72,1,1,1,10.97,43.89,26.82,35.97,12.19,15.24,3.05,611.64,TARP,DOE-2,200.67,22.30,16.79,5.50,17,2,0,Yes
 Zone Information, THERMAL ZONE: F5 2-BED EAST,0.0,0.00,0.00,0.00,50.29,16.46,13.72,1,1,1,45.72,54.86,0.00,32.92,12.19,15.24,3.05,917.47,TARP,DOE-2,301.01,128.21,96.09,32.12,15,4,0,Yes
 Zone Information, THERMAL ZONE: F5 2-BED WEST,0.0,0.00,0.00,0.00,4.57,16.46,13.72,1,1,1,0.00,9.14,0.00,32.92,12.19,15.24,3.05,917.47,TARP,DOE-2,301.01,128.21,96.09,32.12,15,4,0,Yes
 Zone Information, THERMAL ZONE: F5 3-BED NE,0.0,0.00,0.00,0.00,50.29,40.08,13.72,1,1,1,45.72,54.86,32.92,47.24,12.19,15.24,3.05,399.27,TARP,DOE-2,130.99,71.54,53.60,17.93,7,2,0,Yes
 Zone Information, THERMAL ZONE: F5 3-BED NW,0.0,0.00,0.00,0.00,4.57,40.08,13.72,1,1,1,0.00,9.14,32.92,47.24,12.19,15.24,3.05,399.27,TARP,DOE-2,130.99,71.54,53.60,17.93,7,2,0,Yes
 Zone Information, THERMAL ZONE: F5 CORRIDOR,0.0,0.00,0.00,0.00,28.00,26.22,13.72,1,1,1,9.14,45.72,5.49,37.80,12.19,15.24,3.05,781.54,TARP,DOE-2,256.41,29.73,22.38,7.35,55,3,0,Yes
 Zone Information, THERMAL ZONE: F5 STUDIO SE,0.0,0.00,0.00,0.00,41.15,2.74,13.72,1,1,1,36.58,45.72,0.00,5.49,12.19,15.24,3.05,152.91,TARP,DOE-2,50.17,44.59,33.45,11.15,7,2,0,Yes
 Zone Information, THERMAL ZONE: F5 STUDIO SW,0.0,0.00,0.00,0.00,13.72,2.74,13.72,1,1,1,9.14,18.29,0.00,5.49,12.19,15.24,3.05,152.91,TARP,DOE-2,50.17,44.59,33.45,11.15,7,2,0,Yes
 Zone Information, THERMAL ZONE: PARKING GARAGE,0.0,0.00,0.00,0.00,27.54,23.62,-3.05,1,1,1,0.00,54.86,0.00,47.24,-6.10,0.00,6.10,15800.80,TARP,DOE-2,2591.99,0.00,0.00,0.00,29,0,0,Yes
! <Zone Internal Gains Nominal>,Zone Name, Floor Area {m2},# Occupants,Area per Occupant {m2/person},Occupant per Area {person/m2},Interior Lighting {W/m2},Electric Load {W/m2},Gas Load {W/m2},Other Load {W/m2},Hot Water Eq {W/m2},Steam Equipment {W/m2},Sum Loads per Area {W/m2},Outdoor Controlled Baseboard Heat
 Zone Internal Gains Nominal, THERMAL ZONE: F1 BUSINESS CENTER,33.45,12.0,2.787,0.359,9.149,10.764,0.000,0.000,0.000,0.000,19.913,No
 Zone Internal Gains Nominal, THERMAL ZONE: F1 CORRIDOR,178.37,9.3,19.103,5.235E-002,6.172,1.261,0.000,0.000,0.000,0.000,7.434,No
 Zone Internal Gains Nominal, THERMAL ZONE: F1 FITNESS CENTER,83.61,9.0,9.290,0.108,5.382,5.382,0.000,0.000,0.000,0.000,10.764,No
 Zone Internal Gains Nominal, THERMAL ZONE: F1 LEASING OFFICE,32.05,1.7,18.581,5.382E-002,6.997,16.146,0.000,0.000,0.000,0.000,23.142,No
 Zone Internal Gains Nominal, THERMAL ZONE: F1 LOUNGE,97.55,35.0,2.787,0.359,6.997,10.764,0.000,0.000,0.000,0.000,17.760,No
 Zone Internal Gains Nominal, THERMAL ZONE: F1 MECHANICAL ROOM,40.13,0.6,61.935,1.615E-002,4.306,32.292,0.000,0.000,0.000,0.000,36.597,No
 Zone Internal Gains Nominal, THERMAL ZONE: F1 RETAIL N-NW,556.02,49.9,11.146,8.972E-002,10.764,10.764,0.000,0.000,0.000,0.000,21.528,No
 Zone Internal Gains Nominal, THERMAL ZONE: F1 RETAIL NE,401.34,36.0,11.146,8.972E-002,10.764,10.764,0.000,0.000,0.000,0.000,21.528,No
 Zone Internal Gains Nominal, THERMAL ZONE: F1 RETAIL SE,267.56,24.0,11.146,8.972E-002,10.764,10.764,0.000,0.000,0.000,0.000,21.528,No
 Zone Internal Gains Nominal, THERMAL ZONE: F1 RETAIL SW,411.37,36.9,11.146,8.972E-002,10.764,10.764,0.000,0.000,0.000,0.000,21.528,No
 Zone Internal Gains Nominal, THERMAL ZONE: F2-4 1-BED CORE EAST,133.78,4.0,33.445,2.990E-002,5.382,5.382,2.153,0.000,0.000,0.000,12.917,No
 Zone Internal Gains Nominal, THERMAL ZONE: F2-4 1-BED CORE N,66.89,2.0,33.445,2.990E-002,5.382,5.382,2.153,0.000,0.000,0.000,12.917,No
 Zone Internal Gains Nominal, THERMAL ZONE: F2-4 1-BED CORE WEST,133.78,4.0,33.445,2.990E-002,5.382,5.382,2.153,0.000,0.000,0.000,12.917,No
 Zone Internal Gains Nominal, THERMAL ZONE: F2-4 1-BED NORTH,345.60,10.0,34.560,2.894E-002,5.382,5.382,2.153,0.000,0.000,0.000,12.917,No
 Zone Internal Gains Nominal, THERMAL ZONE: F2-4 2-BED CORE NE-NW,200.67,6.0,33.445,2.990E-002,5.382,5.382,2.153,0.000,0.000,0.000,12.917,No
 Zone Internal Gains Nominal, THERMAL ZONE: F2-4 2-BED EAST,301.01,9.0,33.445,2.990E-002,5.382,5.382,2.153,0.000,0.000,0.000,12.917,No
 Zone Internal Gains Nominal, THERMAL ZONE: F2-4 2-BED WEST,301.01,9.0,33.445,2.990E-002,5.382,5.382,2.153,0.000,0.000,0.000,12.917,No
 Zone Internal Gains Nominal, THERMAL ZONE: F2-4 3-BED NE,130.99,4.0,32.748,3.054E-002,5.382,5.382,2.153,0.000,0.000,0.000,12.917,No
 Zone Internal Gains Nominal, THERMAL ZONE: F2-4 3-BED NW,130.99,4.0,32.748,3.054E-002,5.382,5.382,2.153,0.000,0.000,0.000,12.917,No
 Zone Internal Gains Nominal, THERMAL ZONE: F2-4 CORRIDOR,256.41,13.5,18.941,5.280E-002,6.154,2.983,0.154,0.000,0.000,0.000,9.292,No
 Zone Internal Gains Nominal, THERMAL ZONE: F2-4 STUDIO SE,50.17,2.0,25.084,3.987E-002,5.382,5.382,2.153,0.000,0.000,0.000,12.917,No
 Zone Internal Gains Nominal, THERMAL ZONE: F2-4 STUDIO SW,50.17,2.0,25.084,3.987E-002,5.382,5.382,2.153,0.000,0.000,0.000,12.917,No
 Zone Internal Gains Nominal, THERMAL ZONE: F5 1-BED CORE EAST,133.78,4.0,33.445,2.990E-002,5.382,5.382,2.153,0.000,0.000,0.000,12.917,No
 Zone Internal Gains Nominal, THERMAL ZONE: F5 1-BED CORE N,66.89,2.0,33.445,2.990E-002,5.382,5.382,2.153,0.000,0.000,0.000,12.917,No
 Zone Internal Gains Nominal, THERMAL ZONE: F5 1-BED CORE WEST,133.78,4.0,33.445,2.990E-002,5.382,5.382,2.153,0.000,0.000,0.000,12.917,No
 Zone Internal Gains Nominal, THERMAL ZONE: F5 1-BED NORTH,345.60,10.0,34.560,2.894E-002,5.382,5.382,2.153,0.000,0.000,0.000,12.917,No
 Zone Internal Gains Nominal, THERMAL ZONE: F5 2-BED CORE NE-NW,200.67,6.0,33.445,2.990E-002,5.382,5.382,2.153,0.000,0.000,0.000,12.917,No
 Zone Internal Gains Nominal, THERMAL ZONE: F5 2-BED EAST,301.01,9.0,33.445,2.990E-002,5.382,5.382,2.153,0.000,0.000,0.000,12.917,No
 Zone Internal Gains Nominal, THERMAL ZONE: F5 2-BED WEST,301.01,9.0,33.445,2.990E-002,5.382,5.382,2.153,0.000,0.000,0.000,12.917,No
 Zone Internal Gains Nominal, THERMAL ZONE: F5 3-BED NE,130.99,4.0,32.748,3.054E-002,5.382,5.382,2.153,0.000,0.000,0.000,12.917,No
 Zone Internal Gains Nominal, THERMAL ZONE: F5 3-BED NW,130.99,4.0,32.748,3.054E-002,5.382,5.382,2.153,0.000,0.000,0.000,12.917,No
 Zone Internal Gains Nominal, THERMAL ZONE: F5 CORRIDOR,256.41,13.5,18.941,5.280E-002,6.154,2.983,0.154,0.000,0.000,0.000,9.292,No
 Zone Internal Gains Nominal, THERMAL ZONE: F5 STUDIO SE,50.17,2.0,25.084,3.987E-002,5.382,5.382,2.153,0.000,0.000,0.000,12.917,No
 Zone Internal Gains Nominal, THERMAL ZONE: F5 STUDIO SW,50.17,2.0,25.084,3.987E-002,5.382,5.382,2.153,0.000,0.000,0.000,12.917,No
 Zone Internal Gains Nominal, THERMAL ZONE: PARKING GARAGE,2591.99,69.8,37.161,2.691E-002,1.076,0.000,0.000,0.000,0.000,0.000,1.076,No
! <People Internal Gains Nominal>,Name,Schedule Name,Zone Name,Zone Floor Area {m2},# Zone Occupants,Number of People {},People/Floor Area {person/m2},Floor Area per person {m2/person},Fraction Radiant,Fraction Convected,Sensible Fraction Calculation,Activity level,ASHRAE 55 Warnings,Carbon Dioxide Generation Rate,Nominal Minimum Number of People,Nominal Maximum Number of People
 People Internal Gains Nominal, F1 BUSINESS CENTER PEOPLE,RETAILOCCUPANCY,THERMAL ZONE: F1 BUSINESS CENTER,33.45,12.0,12.0,0.359,2.787,0.300,0.700,0.613,F1 BUSINESS CENTER PEOPLE ACTIVITY LEVEL,No,3.8200E-008,0,12
 People Internal Gains Nominal, F1 CORRIDOR PEOPLE,RETAILOCCUPANCY,THERMAL ZONE: F1 CORRIDOR,178.37,9.3,7.4,4.163E-002,24.023,0.300,0.700,0.500,F1 CORRIDOR PEOPLE ACTIVITY LEVEL,No,3.8200E-008,0,7
 People Internal Gains Nominal, F1 ELEVATOR CORE PEOPLE,RETAILOCCUPANCY,THERMAL ZONE: F1 CORRIDOR,178.37,9.3,3.8E-002,2.102E-004,4756.636,0.300,0.700,0.500,F1 ELEVATOR CORE PEOPLE ACTIVITY LEVEL,No,3.8200E-008,0,4.E-002
 People Internal Gains Nominal, F1 ELEVATOR N PEOPLE,RETAILOCCUPANCY,THERMAL ZONE: F1 CORRIDOR,178.37,9.3,3.8E-002,2.102E-004,4756.636,0.300,0.700,0.500,F1 ELEVATOR N PEOPLE ACTIVITY LEVEL,No,3.8200E-008,0,4.E-002
 People Internal Gains Nominal, F1 ELEVATOR S PEOPLE,RETAILOCCUPANCY,THERMAL ZONE: F1 CORRIDOR,178.37,9.3,3.8E-002,2.102E-004,4756.636,0.300,0.700,0.500,F1 ELEVATOR S PEOPLE ACTIVITY LEVEL,No,3.8200E-008,0,4.E-002
 People Internal Gains Nominal, F1 STAIRS E PEOPLE,RETAILOCCUPANCY,THERMAL ZONE: F1 CORRIDOR,178.37,9.3,0.9,5.046E-003,198.193,0.300,0.700,0.500,F1 STAIRS E PEOPLE ACTIVITY LEVEL,No,3.8200E-008,0,1
 People Internal Gains Nominal, F1 STAIRS W PEOPLE,RETAILOCCUPANCY,THERMAL ZONE: F1 CORRIDOR,178.37,9.3,0.9,5.046E-003,198.193,0.300,0.700,0.500,F1 STAIRS W PEOPLE ACTIVITY LEVEL,No,3.8200E-008,0,1
 People Internal Gains Nominal, F1 FITNESS CENTER PEOPLE,RETAILOCCUPANCY,THERMAL ZONE: F1 FITNESS CENTER,83.61,9.0,9.0,0.108,9.290,0.300,0.700,0.226,F1 FITNESS CENTER PEOPLE ACTIVITY LEVEL,No,3.8200E-008,0,9
 People Internal Gains Nominal, F1 LEASING OFFICE PEOPLE,RETAILOCCUPANCY,THERMAL ZONE: F1 LEASING OFFICE,32.05,1.7,1.7,5.382E-002,18.581,0.300,0.700,0.556,F1 LEASING OFFICE PEOPLE ACTIVITY LEVEL,No,3.8200E-008,0,2
 People Internal Gains Nominal, F1 LOUNGE PEOPLE,RETAILOCCUPANCY,THERMAL ZONE: F1 LOUNGE,97.55,35.0,35.0,0.359,2.787,0.300,0.700,0.500,F1 LOUNGE PEOPLE ACTIVITY LEVEL,No,3.8200E-008,0,35
 People Internal Gains Nominal, F1 MECHANICAL ROOM PEOPLE,RETAILOCCUPANCY,THERMAL ZONE: F1 MECHANICAL ROOM,40.13,0.6,0.6,1.615E-002,61.935,0.300,0.700,0.500,F1 MECHANICAL ROOM PEOPLE ACTIVITY LEVEL,No,3.8200E-008,0,1
 People Internal Gains Nominal, F1 RETAIL N CORE PEOPLE,RETAILOCCUPANCY,THERMAL ZONE: F1 RETAIL N-NW,556.02,49.9,13.9,2.496E-002,40.066,0.300,0.700,0.556,F1 RETAIL N CORE PEOPLE ACTIVITY LEVEL,No,3.8200E-008,0,14
 People Internal Gains Nominal, F1 RETAIL NW INNER CORE PEOPLE,RETAILOCCUPANCY,THERMAL ZONE: F1 RETAIL N-NW,556.02,49.9,12.0,2.159E-002,46.326,0.300,0.700,0.556,F1 RETAIL NW INNER CORE PEOPLE ACTIVITY LEVEL,No,3.8200E-008,0,12
 People Internal Gains Nominal, F1 RETAIL NW OUTER CORE PEOPLE,RETAILOCCUPANCY,THERMAL ZONE: F1 RETAIL N-NW,556.02,49.9,12.0,2.159E-002,46.326,0.300,0.700,0.556,F1 RETAIL NW OUTER CORE PEOPLE ACTIVITY LEVEL,No,3.8200E-008,0,12
 People Internal Gains Nominal, F1 RETAIL NW OUTER PEOPLE,RETAILOCCUPANCY,THERMAL ZONE: F1 RETAIL N-NW,556.02,49.9,12.0,2.159E-002,46.326,0.300,0.700,0.556,F1 RETAIL NW OUTER PEOPLE ACTIVITY LEVEL,No,3.8200E-008,0,12
 People Internal Gains Nominal, F1 RETAIL NE CORE PEOPLE,RETAILOCCUPANCY,THERMAL ZONE: F1 RETAIL NE,401.34,36.0,12.0,2.991E-002,33.438,0.300,0.700,0.556,F1 RETAIL NE CORE PEOPLE ACTIVITY LEVEL,No,3.8200E-008,0,12
 People Internal Gains Nominal, F1 RETAIL NE INNER PEOPLE,RETAILOCCUPANCY,THERMAL ZONE: F1 RETAIL NE,401.34,36.0,12.0,2.991E-002,33.438,0.300,0.700,0.556,F1 RETAIL NE INNER PEOPLE ACTIVITY LEVEL,No,3.8200E-008,0,12
 People Internal Gains Nominal, F1 RETAIL NE OUTER PEOPLE,RETAILOCCUPANCY,THERMAL ZONE: F1 RETAIL NE,401.34,36.0,12.0,2.991E-002,33.438,0.300,0.700,0.556,F1 RETAIL NE OUTER PEOPLE ACTIVITY LEVEL,No,3.8200E-008,0,12
 People Internal Gains Nominal, F1 RETAIL SE BOTTOM PEOPLE,RETAILOCCUPANCY,THERMAL ZONE: F1 RETAIL SE,267.56,24.0,12.0,4.486E-002,22.292,0.300,0.700,0.556,F1 RETAIL SE BOTTOM PEOPLE ACTIVITY LEVEL,No,3.8200E-008,0,12
 People Internal Gains Nominal, F1 RETAIL SE TOP PEOPLE,RETAILOCCUPANCY,THERMAL ZONE: F1 RETAIL SE,267.56,24.0,12.0,4.486E-002,22.292,0.300,0.700,0.556,F1 RETAIL SE TOP PEOPLE ACTIVITY LEVEL,No,3.8200E-008,0,12
 People Internal Gains Nominal, F1 RETAIL SW BOTTOM PEOPLE,RETAILOCCUPANCY,THERMAL ZONE: F1 RETAIL SW,411.37,36.9,12.0,2.918E-002,34.274,0.300,0.700,0.556,F1 RETAIL SW BOTTOM PEOPLE ACTIVITY LEVEL,No,3.8200E-008,0,12
 People Internal Gains Nominal, F1 RETAIL SW CORE PEOPLE,RETAILOCCUPANCY,THERMAL ZONE: F1 RETAIL SW,411.37,36.9,12.0,2.918E-002,34.274,0.300,0.700,0.556,F1 RETAIL SW CORE PEOPLE ACTIVITY LEVEL,No,3.8200E-008,0,12
 People Internal Gains Nominal, F1 RETAIL SW TOP PEOPLE,RETAILOCCUPANCY,THERMAL ZONE: F1 RETAIL SW,411.37,36.9,12.9,3.136E-002,31.883,0.300,0.700,0.556,F1 RETAIL SW TOP PEOPLE ACTIVITY LEVEL,No,3.8200E-008,0,13
 People Internal Gains Nominal, F2-4 1-BED CORE NE PEOPLE,RESIDENTIALLIVINGOCCUPANCY,THERMAL ZONE: F2-4 1-BED CORE EAST,133.78,4.0,2.0,1.495E-002,66.890,0.300,0.700,0.613,F2-4 1-BED CORE NE PEOPLE ACTIVITY LEVEL,No,3.8200E-008,0,2
 People Internal Gains Nominal, F2-4 1-BED CORE SE PEOPLE,RESIDENTIALLIVINGOCCUPANCY,THERMAL ZONE: F2-4 1-BED CORE EAST,133.78,4.0,2.0,1.495E-002,66.890,0.300,0.700,0.613,F2-4 1-BED CORE SE PEOPLE ACTIVITY LEVEL,No,3.8200E-008,0,2
 People Internal Gains Nominal, F2-4 1-BED CORE N PEOPLE,RESIDENTIALLIVINGOCCUPANCY,THERMAL ZONE: F2-4 1-BED CORE N,66.89,2.0,2.0,2.990E-002,33.445,0.300,0.700,0.613,F2-4 1-BED CORE N PEOPLE ACTIVITY LEVEL,No,3.8200E-008,0,2
 People Internal Gains Nominal, F2-4 1-BED CORE NW PEOPLE,RESIDENTIALLIVINGOCCUPANCY,THERMAL ZONE: F2-4 1-BED CORE WEST,133.78,4.0,2.0,1.495E-002,66.890,0.300,0.700,0.613,F2-4 1-BED CORE NW PEOPLE ACTIVITY LEVEL,No,3.8200E-008,0,2
 People Internal Gains Nominal, F2-4 1-BED CORE SW PEOPLE,RESIDENTIALLIVINGOCCUPANCY,THERMAL ZONE: F2-4 1-BED CORE WEST,133.78,4.0,2.0,1.495E-002,66.890,0.300,0.700,0.613,F2-4 1-BED CORE SW PEOPLE ACTIVITY LEVEL,No,3.8200E-008,0,2
 People Internal Gains Nominal, F2-4 1-BED N PEOPLE,RESIDENTIALLIVINGOCCUPANCY,THERMAL ZONE: F2-4 1-BED NORTH,345.60,10.0,2.0,5.787E-003,172.800,0.300,0.700,0.613,F2-4 1-BED N PEOPLE ACTIVITY LEVEL,No,3.8200E-008,0,2
 People Internal Gains Nominal, F2-4 1-BED NE CORE PEOPLE,RESIDENTIALLIVINGOCCUPANCY,THERMAL ZONE: F2-4 1-BED NORTH,345.60,10.0,2.0,5.787E-003,172.800,0.300,0.700,0.613,F2-4 1-BED NE CORE PEOPLE ACTIVITY LEVEL,No,3.8200E-008,0,2
 People Internal Gains Nominal, F2-4 1-BED NE OUTER PEOPLE,RESIDENTIALLIVINGOCCUPANCY,THERMAL ZONE: F2-4 1-BED NORTH,345.60,10.0,2.0,5.787E-003,172.800,0.300,0.700,0.613,F2-4 1-BED NE OUTER PEOPLE ACTIVITY LEVEL,No,3.8200E-008,0,2
 People Internal Gains Nominal, F2-4 1-BED NW CORE PEOPLE,RESIDENTIALLIVINGOCCUPANCY,THERMAL ZONE: F2-4 1-BED NORTH,345.60,10.0,2.0,5.787E-003,172.800,0.300,0.700,0.613,F2-4 1-BED NW CORE PEOPLE ACTIVITY LEVEL,No,3.8200E-008,0,2
 People Internal Gains Nominal, F2-4 1-BED NW OUTER PEOPLE,RESIDENTIALLIVINGOCCUPANCY,THERMAL ZONE: F2-4 1-BED NORTH,345.60,10.0,2.0,5.787E-003,172.800,0.300,0.700,0.613,F2-4 1-BED NW OUTER PEOPLE ACTIVITY LEVEL,No,3.8200E-008,0,2
 People Internal Gains Nominal, F2-4 2-BED CORE NE PEOPLE,RESIDENTIALLIVINGOCCUPANCY,THERMAL ZONE: F2-4 2-BED CORE NE-NW,200.67,6.0,3.0,1.495E-002,66.890,0.300,0.700,0.613,F2-4 2-BED CORE NE PEOPLE ACTIVITY LEVEL,No,3.8200E-008,0,3
 People Internal Gains Nominal, F2-4 2-BED CORE NW PEOPLE,RESIDENTIALLIVINGOCCUPANCY,THERMAL ZONE: F2-4 2-BED CORE NE-NW,200.67,6.0,3.0,1.495E-002,66.890,0.300,0.700,0.613,F2-4 2-BED CORE NW PEOPLE ACTIVITY LEVEL,No,3.8200E-008,0,3
 People Internal Gains Nominal, F2-4 2-BED NE PEOPLE,RESIDENTIALLIVINGOCCUPANCY,THERMAL ZONE: F2-4 2-BED EAST,301.01,9.0,3.0,9.967E-003,100.335,0.300,0.700,0.613,F2-4 2-BED NE PEOPLE ACTIVITY LEVEL,No,3.8200E-008,0,3
 People Internal Gains Nominal, F2-4 2-BED SE CORE PEOPLE,RESIDENTIALLIVINGOCCUPANCY,THERMAL ZONE: F2-4 2-BED EAST,301.01,9.0,3.0,9.967E-003,100.335,0.300,0.700,0.613,F2-4 2-BED SE CORE PEOPLE ACTIVITY LEVEL,No,3.8200E-008,0,3
 People Internal Gains Nominal, F2-4 2-BED SE PEOPLE,RESIDENTIALLIVINGOCCUPANCY,THERMAL ZONE: F2-4 2-BED EAST,301.01,9.0,3.0,9.967E-003,100.335,0.300,0.700,0.613,F2-4 2-BED SE PEOPLE ACTIVITY LEVEL,No,3.8200E-008,0,3
 People Internal Gains Nominal, F2-4 2-BED NW PEOPLE,RESIDENTIALLIVINGOCCUPANCY,THERMAL ZONE: F2-4 2-BED WEST,301.01,9.0,3.0,9.967E-003,100.335,0.300,0.700,0.613,F2-4 2-BED NW PEOPLE ACTIVITY LEVEL,No,3.8200E-008,0,3
 People Internal Gains Nominal, F2-4 2-BED SW CORE PEOPLE,RESIDENTIALLIVINGOCCUPANCY,THERMAL ZONE: F2-4 2-BED WEST,301.01,9.0,3.0,9.967E-003,100.335,0.300,0.700,0.613,F2-4 2-BED SW CORE PEOPLE ACTIVITY LEVEL,No,3.8200E-008,0,3
 People Internal Gains Nominal, F2-4 2-BED SW PEOPLE,RESIDENTIALLIVINGOCCUPANCY,THERMAL ZONE: F2-4 2-BED WEST,301.01,9.0,3.0,9.967E-003,100.335,0.300,0.700,0.613,F2-4 2-BED SW PEOPLE ACTIVITY LEVEL,No,3.8200E-008,0,3
 People Internal Gains Nominal, F2-4 3-BED NE PEOPLE,RESIDENTIALLIVINGOCCUPANCY,THERMAL ZONE: F2-4 3-BED NE,130.99,4.0,4.0,3.054E-002,32.748,0.300,0.700,0.613,F2-4 3-BED NE PEOPLE ACTIVITY LEVEL,No,3.8200E-008,0,4
 People Internal Gains Nominal, F2-4 3-BED NW PEOPLE,RESIDENTIALLIVINGOCCUPANCY,THERMAL ZONE: F2-4 3-BED NW,130.99,4.0,4.0,3.054E-002,32.748,0.300,0.700,0.613,F2-4 3-BED NW PEOPLE ACTIVITY LEVEL,No,3.8200E-008,0,4
 People Internal Gains Nominal, F2-4 CORRIDOR PEOPLE,OFFICEOCCUPANCY,THERMAL ZONE: F2-4 CORRIDOR,256.41,13.5,10.7,4.183E-002,23.908,0.300,0.700,0.500,F2-4 CORRIDOR PEOPLE ACTIVITY LEVEL,No,3.8200E-008,0,11
 People Internal Gains Nominal, F2-4 ELEVATOR CORE PEOPLE,OFFICEOCCUPANCY,THERMAL ZONE: F2-4 CORRIDOR,256.41,13.5,3.8E-002,1.462E-004,6837.664,0.300,0.700,0.500,F2-4 ELEVATOR CORE PEOPLE ACTIVITY LEVEL,No,3.8200E-008,0,4.E-002
 People Internal Gains Nominal, F2-4 ELEVATOR N PEOPLE,OFFICEOCCUPANCY,THERMAL ZONE: F2-4 CORRIDOR,256.41,13.5,3.8E-002,1.462E-004,6837.664,0.300,0.700,0.500,F2-4 ELEVATOR N PEOPLE ACTIVITY LEVEL,No,3.8200E-008,0,4.E-002
 People Internal Gains Nominal, F2-4 ELEVATOR S PEOPLE,OFFICEOCCUPANCY,THERMAL ZONE: F2-4 CORRIDOR,256.41,13.5,3.8E-002,1.462E-004,6837.664,0.300,0.700,0.500,F2-4 ELEVATOR S PEOPLE ACTIVITY LEVEL,No,3.8200E-008,0,4.E-002
 People Internal Gains Nominal, F2-4 LAUNDRY PEOPLE,OFFICEOCCUPANCY,THERMAL ZONE: F2-4 CORRIDOR,256.41,13.5,0.9,3.510E-003,284.903,0.300,0.700,0.500,F2-4 LAUNDRY PEOPLE ACTIVITY LEVEL,No,3.8200E-008,0,1
 People Internal Gains Nominal, F2-4 STAIR E PEOPLE,OFFICEOCCUPANCY,THERMAL ZONE: F2-4 CORRIDOR,256.41,13.5,0.9,3.510E-003,284.903,0.300,0.700,0.500,F2-4 STAIR E PEOPLE ACTIVITY LEVEL,No,3.8200E-008,0,1
 People Internal Gains Nominal, F2-4 STAIR W PEOPLE,OFFICEOCCUPANCY,THERMAL ZONE: F2-4 CORRIDOR,256.41,13.5,0.9,3.510E-003,284.903,0.300,0.700,0.500,F2-4 STAIR W PEOPLE ACTIVITY LEVEL,No,3.8200E-008,0,1
 People Internal Gains Nominal, F2-4 STUDIO SE PEOPLE,RESIDENTIALLIVINGOCCUPANCY,THERMAL ZONE: F2-4 STUDIO SE,50.17,2.0,2.0,3.987E-002,25.084,0.300,0.700,0.613,F2-4 STUDIO SE PEOPLE ACTIVITY LEVEL,No,3.8200E-008,0,2
 People Internal Gains Nominal, F2-4 STUDIO SW PEOPLE,RESIDENTIALLIVINGOCCUPANCY,THERMAL ZONE: F2-4 STUDIO SW,50.17,2.0,2.0,3.987E-002,25.084,0.300,0.700,0.613,F2-4 STUDIO SW PEOPLE ACTIVITY LEVEL,No,3.8200E-008,0,2
 People Internal Gains Nominal, F5 1-BED CORE NE PEOPLE,RESIDENTIALLIVINGOCCUPANCY,THERMAL ZONE: F5 1-BED CORE EAST,133.78,4.0,2.0,1.495E-002,66.890,0.300,0.700,0.613,F5 1-BED CORE NE PEOPLE ACTIVITY LEVEL,No,3.8200E-008,0,2
 People Internal Gains Nominal, F5 1-BED CORE SE PEOPLE,RESIDENTIALLIVINGOCCUPANCY,THERMAL ZONE: F5 1-BED CORE EAST,133.78,4.0,2.0,1.495E-002,66.890,0.300,0.700,0.613,F5 1-BED CORE SE PEOPLE ACTIVITY LEVEL,No,3.8200E-008,0,2
 People Internal Gains Nominal, F5 1-BED CORE N PEOPLE,RESIDENTIALLIVINGOCCUPANCY,THERMAL ZONE: F5 1-BED CORE N,66.89,2.0,2.0,2.990E-002,33.445,0.300,0.700,0.613,F5 1-BED CORE N PEOPLE ACTIVITY LEVEL,No,3.8200E-008,0,2
 People Internal Gains Nominal, F5 1-BED CORE NW PEOPLE,RESIDENTIALLIVINGOCCUPANCY,THERMAL ZONE: F5 1-BED CORE WEST,133.78,4.0,2.0,1.495E-002,66.890,0.300,0.700,0.613,F5 1-BED CORE NW PEOPLE ACTIVITY LEVEL,No,3.8200E-008,0,2
 People Internal Gains Nominal, F5 1-BED CORE SW PEOPLE,RESIDENTIALLIVINGOCCUPANCY,THERMAL ZONE: F5 1-BED CORE WEST,133.78,4.0,2.0,1.495E-002,66.890,0.300,0.700,0.613,F5 1-BED CORE SW PEOPLE ACTIVITY LEVEL,No,3.8200E-008,0,2
 People Internal Gains Nominal, F5 1-BED N PEOPLE,RESIDENTIALLIVINGOCCUPANCY,THERMAL ZONE: F5 1-BED NORTH,345.60,10.0,2.0,5.787E-003,172.800,0.300,0.700,0.613,F5 1-BED N PEOPLE ACTIVITY LEVEL,No,3.8200E-008,0,2
 People Internal Gains Nominal, F5 1-BED NE CORE PEOPLE,RESIDENTIALLIVINGOCCUPANCY,THERMAL ZONE: F5 1-BED NORTH,345.60,10.0,2.0,5.787E-003,172.800,0.300,0.700,0.613,F5 1-BED NE CORE PEOPLE ACTIVITY LEVEL,No,3.8200E-008,0,2
 People Internal Gains Nominal, F5 1-BED NE OUTER PEOPLE,RESIDENTIALLIVINGOCCUPANCY,THERMAL ZONE: F5 1-BED NORTH,345.60,10.0,2.0,5.787E-003,172.800,0.300,0.700,0.613,F5 1-BED NE OUTER PEOPLE ACTIVITY LEVEL,No,3.8200E-008,0,2
 People Internal Gains Nominal, F5 1-BED NW CORE PEOPLE,RESIDENTIALLIVINGOCCUPANCY,THERMAL ZONE: F5 1-BED NORTH,345.60,10.0,2.0,5.787E-003,172.800,0.300,0.700,0.613,F5 1-BED NW CORE PEOPLE ACTIVITY LEVEL,No,3.8200E-008,0,2
 People Internal Gains Nominal, F5 1-BED NW OUTER PEOPLE,RESIDENTIALLIVINGOCCUPANCY,THERMAL ZONE: F5 1-BED NORTH,345.60,10.0,2.0,5.787E-003,172.800,0.300,0.700,0.613,F5 1-BED NW OUTER PEOPLE ACTIVITY LEVEL,No,3.8200E-008,0,2
 People Internal Gains Nominal, F5 2-BED CORE NE PEOPLE,RESIDENTIALLIVINGOCCUPANCY,THERMAL ZONE: F5 2-BED CORE NE-NW,200.67,6.0,3.0,1.495E-002,66.890,0.300,0.700,0.613,F5 2-BED CORE NE PEOPLE ACTIVITY LEVEL,No,3.8200E-008,0,3
 People Internal Gains Nominal, F5 2-BED CORE NW PEOPLE,RESIDENTIALLIVINGOCCUPANCY,THERMAL ZONE: F5 2-BED CORE NE-NW,200.67,6.0,3.0,1.495E-002,66.890,0.300,0.700,0.613,F5 2-BED CORE NW PEOPLE ACTIVITY LEVEL,No,3.8200E-008,0,3
 People Internal Gains Nominal, F5 2-BED NE PEOPLE,RESIDENTIALLIVINGOCCUPANCY,THERMAL ZONE: F5 2-BED EAST,301.01,9.0,3.0,9.967E-003,100.335,0.300,0.700,0.613,F5 2-BED NE PEOPLE ACTIVITY LEVEL,No,3.8200E-008,0,3
 People Internal Gains Nominal, F5 2-BED SE CORE PEOPLE,RESIDENTIALLIVINGOCCUPANCY,THERMAL ZONE: F5 2-BED EAST,301.01,9.0,3.0,9.967E-003,100.335,0.300,0.700,0.613,F5 2-BED SE CORE PEOPLE ACTIVITY LEVEL,No,3.8200E-008,0,3
 People Internal Gains Nominal, F5 2-BED SE PEOPLE,RESIDENTIALLIVINGOCCUPANCY,THERMAL ZONE: F5 2-BED EAST,301.01,9.0,3.0,9.967E-003,100.335,0.300,0.700,0.613,F5 2-BED SE PEOPLE ACTIVITY LEVEL,No,3.8200E-008,0,3
 People Internal Gains Nominal, F5 2-BED NW PEOPLE,RESIDENTIALLIVINGOCCUPANCY,THERMAL ZONE: F5 2-BED WEST,301.01,9.0,3.0,9.967E-003,100.335,0.300,0.700,0.613,F5 2-BED NW PEOPLE ACTIVITY LEVEL,No,3.8200E-008,0,3
 People Internal Gains Nominal, F5 2-BED SW CORE PEOPLE,RESIDENTIALLIVINGOCCUPANCY,THERMAL ZONE: F5 2-BED WEST,301.01,9.0,3.0,9.967E-003,100.335,0.300,0.700,0.613,F5 2-BED SW CORE PEOPLE ACTIVITY LEVEL,No,3.8200E-008,0,3
 People Internal Gains Nominal, F5 2-BED SW PEOPLE,RESIDENTIALLIVINGOCCUPANCY,THERMAL ZONE: F5 2-BED WEST,301.01,9.0,3.0,9.967E-003,100.335,0.300,0.700,0.613,F5 2-BED SW PEOPLE ACTIVITY LEVEL,No,3.8200E-008,0,3
 People Internal Gains Nominal, F5 3-BED NE PEOPLE,RESIDENTIALLIVINGOCCUPANCY,THERMAL ZONE: F5 3-BED NE,130.99,4.0,4.0,3.054E-002,32.748,0.300,0.700,0.613,F5 3-BED NE PEOPLE ACTIVITY LEVEL,No,3.8200E-008,0,4
 People Internal Gains Nominal, F5 3-BED NW PEOPLE,RESIDENTIALLIVINGOCCUPANCY,THERMAL ZONE: F5 3-BED NW,130.99,4.0,4.0,3.054E-002,32.748,0.300,0.700,0.613,F5 3-BED NW PEOPLE ACTIVITY LEVEL,No,3.8200E-008,0,4
 People Internal Gains Nominal, F5 CORRIDOR PEOPLE,OFFICEOCCUPANCY,THERMAL ZONE: F5 CORRIDOR,256.41,13.5,10.7,4.183E-002,23.908,0.300,0.700,0.500,F5 CORRIDOR PEOPLE ACTIVITY LEVEL,No,3.8200E-008,0,11
 People Internal Gains Nominal, F5 ELEVATOR CORE PEOPLE,OFFICEOCCUPANCY,THERMAL ZONE: F5 CORRIDOR,256.41,13.5,3.8E-002,1.462E-004,6837.664,0.300,0.700,0.500,F5 ELEVATOR CORE PEOPLE ACTIVITY LEVEL,No,3.8200E-008,0,4.E-002
 People Internal Gains Nominal, F5 ELEVATOR N PEOPLE,OFFICEOCCUPANCY,THERMAL ZONE: F5 CORRIDOR,256.41,13.5,3.8E-002,1.462E-004,6837.664,0.300,0.700,0.500,F5 ELEVATOR N PEOPLE ACTIVITY LEVEL,No,3.8200E-008,0,4.E-002
 People Internal Gains Nominal, F5 ELEVATOR S PEOPLE,OFFICEOCCUPANCY,THERMAL ZONE: F5 CORRIDOR,256.41,13.5,3.8E-002,1.462E-004,6837.664,0.300,0.700,0.500,F5 ELEVATOR S PEOPLE ACTIVITY LEVEL,No,3.8200E-008,0,4.E-002
 People Internal Gains Nominal, F5 LAUNDRY PEOPLE,OFFICEOCCUPANCY,THERMAL ZONE: F5 CORRIDOR,256.41,13.5,0.9,3.510E-003,284.903,0.300,0.700,0.500,F5 LAUNDRY PEOPLE ACTIVITY LEVEL,No,3.8200E-008,0,1
 People Internal Gains Nominal, F5 STAIR E PEOPLE,OFFICEOCCUPANCY,THERMAL ZONE: F5 CORRIDOR,256.41,13.5,0.9,3.510E-003,284.903,0.300,0.700,0.500,F5 STAIR E PEOPLE ACTIVITY LEVEL,No,3.8200E-008,0,1
 People Internal Gains Nominal, F5 STAIR W PEOPLE,OFFICEOCCUPANCY,THERMAL ZONE: F5 CORRIDOR,256.41,13.5,0.9,3.510E-003,284.903,0.300,0.700,0.500,F5 STAIR W PEOPLE ACTIVITY LEVEL,No,3.8200E-008,0,1
 People Internal Gains Nominal, F5 STUDIO SE PEOPLE,RESIDENTIALLIVINGOCCUPANCY,THERMAL ZONE: F5 STUDIO SE,50.17,2.0,2.0,3.987E-002,25.084,0.300,0.700,0.613,F5 STUDIO SE PEOPLE ACTIVITY LEVEL,No,3.8200E-008,0,2
 People Internal Gains Nominal, F5 STUDIO SW PEOPLE,RESIDENTIALLIVINGOCCUPANCY,THERMAL ZONE: F5 STUDIO SW,50.17,2.0,2.0,3.987E-002,25.084,0.300,0.700,0.613,F5 STUDIO SW PEOPLE ACTIVITY LEVEL,No,3.8200E-008,0,2
 People Internal Gains Nominal, PARKING GARAGE PEOPLE,PARKINGOCCUPANCY,THERMAL ZONE: PARKING GARAGE,2591.99,69.8,69.8,2.691E-002,37.161,0.300,0.700,0.556,PARKING GARAGE PEOPLE ACTIVITY LEVEL,No,3.8200E-008,0,70
! <Lights Internal Gains Nominal>,Name,Schedule Name,Zone Name,Zone Floor Area {m2},# Zone Occupants,Lighting Level {W},Lights/Floor Area {W/m2},Lights per person {W/person},Fraction Return Air,Fraction Radiant,Fraction Short Wave,Fraction Convected,Fraction Replaceable,End-Use Category,Nominal Minimum Lighting Level {W},Nominal Maximum Lighting Level {W}
 Lights Internal Gains Nominal, F1 BUSINESS CENTER REGULATED LIGHTS,RETAILLIGHTS,THERMAL ZONE: F1 BUSINESS CENTER,33.45,12.0,306.000,9.149,25.499,0.000,0.580,0.000,0.420,1.000,ComplianceLtg,0.000,306.000
 Lights Internal Gains Nominal, F1 CORRIDOR REGULATED LIGHTS,RETAILLIGHTS,THERMAL ZONE: F1 CORRIDOR,178.37,9.3,891.000,4.995,95.422,0.000,0.580,0.000,0.420,1.000,ComplianceLtg,0.000,891.000
 Lights Internal Gains Nominal, F1 ELEVATOR CORE REGULATED LIGHTS,RETAILLIGHTS,THERMAL ZONE: F1 CORRIDOR,178.37,9.3,10.000,5.606E-002,1.071,0.000,0.580,0.000,0.420,1.000,ComplianceLtg,0.000,10.000
 Lights Internal Gains Nominal, F1 ELEVATOR N REGULATED LIGHTS,RETAILLIGHTS,THERMAL ZONE: F1 CORRIDOR,178.37,9.3,10.000,5.606E-002,1.071,0.000,0.580,0.000,0.420,1.000,ComplianceLtg,0.000,10.000
 Lights Internal Gains Nominal, F1 ELEVATOR S REGULATED LIGHTS,RETAILLIGHTS,THERMAL ZONE: F1 CORRIDOR,178.37,9.3,10.000,5.606E-002,1.071,0.000,0.580,0.000,0.420,1.000,ComplianceLtg,0.000,10.000
 Lights Internal Gains Nominal, F1 STAIRS E REGULATED LIGHTS,RETAILLIGHTS,THERMAL ZONE: F1 CORRIDOR,178.37,9.3,90.000,0.505,9.639,0.000,0.580,0.000,0.420,1.000,ComplianceLtg,0.000,90.000
 Lights Internal Gains Nominal, F1 STAIRS W REGULATED LIGHTS,RETAILLIGHTS,THERMAL ZONE: F1 CORRIDOR,178.37,9.3,90.000,0.505,9.639,0.000,0.580,0.000,0.420,1.000,ComplianceLtg,0.000,90.000
 Lights Internal Gains Nominal, F1 FITNESS CENTER REGULATED LIGHTS,RETAILLIGHTS,THERMAL ZONE: F1 FITNESS CENTER,83.61,9.0,450.000,5.382,50.000,0.000,0.580,0.000,0.420,1.000,ComplianceLtg,0.000,450.000
 Lights Internal Gains Nominal, F1 LEASING OFFICE REGULATED LIGHTS,RETAILLIGHTS,THERMAL ZONE: F1 LEASING OFFICE,32.05,1.7,224.250,6.997,130.000,0.000,0.580,0.000,0.420,1.000,ComplianceLtg,0.000,224.250
 Lights Internal Gains Nominal, F1 LOUNGE REGULATED LIGHTS,RETAILLIGHTS,THERMAL ZONE: F1 LOUNGE,97.55,35.0,682.500,6.997,19.499,0.000,0.580,0.000,0.420,1.000,ComplianceLtg,0.000,682.500
 Lights Internal Gains Nominal, F1 MECHANICAL ROOM REGULATED LIGHTS,RETAILLIGHTS,THERMAL ZONE: F1 MECHANICAL ROOM,40.13,0.6,172.800,4.306,266.667,0.000,0.580,0.000,0.420,1.000,ComplianceLtg,0.000,172.800
 Lights Internal Gains Nominal, F1 RETAIL N CORE REGULATED LIGHTS,RETAILLIGHTS,THERMAL ZONE: F1 RETAIL N-NW,556.02,49.9,1665.000,2.994,33.377,0.000,0.580,0.000,0.420,1.000,ComplianceLtg,0.000,1665.000
 Lights Internal Gains Nominal, F1 RETAIL NW INNER CORE REGULATED LIGHTS,RETAILLIGHTS,THERMAL ZONE: F1 RETAIL N-NW,556.02,49.9,1440.000,2.590,28.866,0.000,0.580,0.000,0.420,1.000,ComplianceLtg,0.000,1440.000
 Lights Internal Gains Nominal, F1 RETAIL NW OUTER CORE REGULATED LIGHTS,RETAILLIGHTS,THERMAL ZONE: F1 RETAIL N-NW,556.02,49.9,1440.000,2.590,28.866,0.000,0.580,0.000,0.420,1.000,ComplianceLtg,0.000,1440.000
 Lights Internal Gains Nominal, F1 RETAIL NW OUTER REGULATED LIGHTS,RETAILLIGHTS,THERMAL ZONE: F1 RETAIL N-NW,556.02,49.9,1440.000,2.590,28.866,0.000,0.580,0.000,0.420,1.000,ComplianceLtg,0.000,1440.000
 Lights Internal Gains Nominal, F1 RETAIL NE CORE REGULATED LIGHTS,RETAILLIGHTS,THERMAL ZONE: F1 RETAIL NE,401.34,36.0,1440.000,3.588,39.992,0.000,0.580,0.000,0.420,1.000,ComplianceLtg,0.000,1440.000
 Lights Internal Gains Nominal, F1 RETAIL NE INNER REGULATED LIGHTS,RETAILLIGHTS,THERMAL ZONE: F1 RETAIL NE,401.34,36.0,1440.000,3.588,39.992,0.000,0.580,0.000,0.420,1.000,ComplianceLtg,0.000,1440.000
 Lights Internal Gains Nominal, F1 RETAIL NE OUTER REGULATED LIGHTS,RETAILLIGHTS,THERMAL ZONE: F1 RETAIL NE,401.34,36.0,1440.000,3.588,39.992,0.000,0.580,0.000,0.420,1.000,ComplianceLtg,0.000,1440.000
 Lights Internal Gains Nominal, F1 RETAIL SE BOTTOM REGULATED LIGHTS,RETAILLIGHTS,THERMAL ZONE: F1 RETAIL SE,267.56,24.0,1440.000,5.382,59.988,0.000,0.580,0.000,0.420,1.000,ComplianceLtg,0.000,1440.000
 Lights Internal Gains Nominal, F1 RETAIL SE TOP REGULATED LIGHTS,RETAILLIGHTS,THERMAL ZONE: F1 RETAIL SE,267.56,24.0,1440.000,5.382,59.988,0.000,0.580,0.000,0.420,1.000,ComplianceLtg,0.000,1440.000
 Lights Internal Gains Nominal, F1 RETAIL SW BOTTOM REGULATED LIGHTS,RETAILLIGHTS,THERMAL ZONE: F1 RETAIL SW,411.37,36.9,1440.000,3.500,39.017,0.000,0.580,0.000,0.420,1.000,ComplianceLtg,0.000,1440.000
 Lights Internal Gains Nominal, F1 RETAIL SW CORE REGULATED LIGHTS,RETAILLIGHTS,THERMAL ZONE: F1 RETAIL SW,411.37,36.9,1440.000,3.500,39.017,0.000,0.580,0.000,0.420,1.000,ComplianceLtg,0.000,1440.000
 Lights Internal Gains Nominal, F1 RETAIL SW TOP REGULATED LIGHTS,RETAILLIGHTS,THERMAL ZONE: F1 RETAIL SW,411.37,36.9,1548.000,3.763,41.943,0.000,0.580,0.000,0.420,1.000,ComplianceLtg,0.000,1548.000
 Lights Internal Gains Nominal, F2-4 1-BED CORE NE NON-REGULATED LIGHTS,RESIDENTIALLIVINGLIGHTS,THERMAL ZONE: F2-4 1-BED CORE EAST,133.78,4.0,360.000,2.691,90.000,0.000,0.580,0.000,0.420,1.000,NonComplianceLtg,0.000,360.000
 Lights Internal Gains Nominal, F2-4 1-BED CORE SE NON-REGULATED LIGHTS,RESIDENTIALLIVINGLIGHTS,THERMAL ZONE: F2-4 1-BED CORE EAST,133.78,4.0,360.000,2.691,90.000,0.000,0.580,0.000,0.420,1.000,NonComplianceLtg,0.000,360.000
 Lights Internal Gains Nominal, F2-4 1-BED CORE N NON-REGULATED LIGHTS,RESIDENTIALLIVINGLIGHTS,THERMAL ZONE: F2-4 1-BED CORE N,66.89,2.0,360.000,5.382,180.000,0.000,0.580,0.000,0.420,1.000,NonComplianceLtg,0.000,360.000
 Lights Internal Gains Nominal, F2-4 1-BED CORE NW NON-REGULATED LIGHTS,RESIDENTIALLIVINGLIGHTS,THERMAL ZONE: F2-4 1-BED CORE WEST,133.78,4.0,360.000,2.691,90.000,0.000,0.580,0.000,0.420,1.000,NonComplianceLtg,0.000,360.000
 Lights Internal Gains Nominal, F2-4 1-BED CORE SW NON-REGULATED LIGHTS,RESIDENTIALLIVINGLIGHTS,THERMAL ZONE: F2-4 1-BED CORE WEST,133.78,4.0,360.000,2.691,90.000,0.000,0.580,0.000,0.420,1.000,NonComplianceLtg,0.000,360.000
 Lights Internal Gains Nominal, F2-4 1-BED N NON-REGULATED LIGHTS,RESIDENTIALLIVINGLIGHTS,THERMAL ZONE: F2-4 1-BED NORTH,345.60,10.0,372.000,1.076,37.200,0.000,0.580,0.000,0.420,1.000,NonComplianceLtg,0.000,372.000
 Lights Internal Gains Nominal, F2-4 1-BED NE CORE NON-REGULATED LIGHTS,RESIDENTIALLIVINGLIGHTS,THERMAL ZONE: F2-4 1-BED NORTH,345.60,10.0,372.000,1.076,37.200,0.000,0.580,0.000,0.420,1.000,NonComplianceLtg,0.000,372.000
 Lights Internal Gains Nominal, F2-4 1-BED NE OUTER NON-REGULATED LIGHTS,RESIDENTIALLIVINGLIGHTS,THERMAL ZONE: F2-4 1-BED NORTH,345.60,10.0,372.000,1.076,37.200,0.000,0.580,0.000,0.420,1.000,NonComplianceLtg,0.000,372.000
 Lights Internal Gains Nominal, F2-4 1-BED NW CORE NON-REGULATED LIGHTS,RESIDENTIALLIVINGLIGHTS,THERMAL ZONE: F2-4 1-BED NORTH,345.60,10.0,372.000,1.076,37.200,0.000,0.580,0.000,0.420,1.000,NonComplianceLtg,0.000,372.000
 Lights Internal Gains Nominal, F2-4 1-BED NW OUTER NON-REGULATED LIGHTS,RESIDENTIALLIVINGLIGHTS,THERMAL ZONE: F2-4 1-BED NORTH,345.60,10.0,372.000,1.076,37.200,0.000,0.580,0.000,0.420,1.000,NonComplianceLtg,0.000,372.000
 Lights Internal Gains Nominal, F2-4 2-BED CORE NE NON-REGULATED LIGHTS,RESIDENTIALLIVINGLIGHTS,THERMAL ZONE: F2-4 2-BED CORE NE-NW,200.67,6.0,540.000,2.691,90.000,0.000,0.580,0.000,0.420,1.000,NonComplianceLtg,0.000,540.000
 Lights Internal Gains Nominal, F2-4 2-BED CORE NW NON-REGULATED LIGHTS,RESIDENTIALLIVINGLIGHTS,THERMAL ZONE: F2-4 2-BED CORE NE-NW,200.67,6.0,540.000,2.691,90.000,0.000,0.580,0.000,0.420,1.000,NonComplianceLtg,0.000,540.000
 Lights Internal Gains Nominal, F2-4 2-BED NE NON-REGULATED LIGHTS,RESIDENTIALLIVINGLIGHTS,THERMAL ZONE: F2-4 2-BED EAST,301.01,9.0,540.000,1.794,60.000,0.000,0.580,0.000,0.420,1.000,NonComplianceLtg,0.000,540.000
 Lights Internal Gains Nominal, F2-4 2-BED SE CORE NON-REGULATED LIGHTS,RESIDENTIALLIVINGLIGHTS,THERMAL ZONE: F2-4 2-BED EAST,301.01,9.0,540.000,1.794,60.000,0.000,0.580,0.000,0.420,1.000,NonComplianceLtg,0.000,540.000
 Lights Internal Gains Nominal, F2-4 2-BED SE NON-REGULATED LIGHTS,RESIDENTIALLIVINGLIGHTS,THERMAL ZONE: F2-4 2-BED EAST,301.01,9.0,540.000,1.794,60.000,0.000,0.580,0.000,0.420,1.000,NonComplianceLtg,0.000,540.000
 Lights Internal Gains Nominal, F2-4 2-BED NW NON-REGULATED LIGHTS,RESIDENTIALLIVINGLIGHTS,THERMAL ZONE: F2-4 2-BED WEST,301.01,9.0,540.000,1.794,60.000,0.000,0.580,0.000,0.420,1.000,NonComplianceLtg,0.000,540.000
 Lights Internal Gains Nominal, F2-4 2-BED SW CORE NON-REGULATED LIGHTS,RESIDENTIALLIVINGLIGHTS,THERMAL ZONE: F2-4 2-BED WEST,301.01,9.0,540.000,1.794,60.000,0.000,0.580,0.000,0.420,1.000,NonComplianceLtg,0.000,540.000
 Lights Internal Gains Nominal, F2-4 2-BED SW NON-REGULATED LIGHTS,RESIDENTIALLIVINGLIGHTS,THERMAL ZONE: F2-4 2-BED WEST,301.01,9.0,540.000,1.794,60.000,0.000,0.580,0.000,0.420,1.000,NonComplianceLtg,0.000,540.000
 Lights Internal Gains Nominal, F2-4 3-BED NE NON-REGULATED LIGHTS,RESIDENTIALLIVINGLIGHTS,THERMAL ZONE: F2-4 3-BED NE,130.99,4.0,705.000,5.382,176.250,0.000,0.580,0.000,0.420,1.000,NonComplianceLtg,0.000,705.000
 Lights Internal Gains Nominal, F2-4 3-BED NW NON-REGULATED LIGHTS,RESIDENTIALLIVINGLIGHTS,THERMAL ZONE: F2-4 3-BED NW,130.99,4.0,705.000,5.382,176.250,0.000,0.580,0.000,0.420,1.000,NonComplianceLtg,0.000,705.000
 Lights Internal Gains Nominal, F2-4 CORRIDOR REGULATED LIGHTS,OFFICELIGHTS,THERMAL ZONE: F2-4 CORRIDOR,256.41,13.5,1287.000,5.019,95.069,0.000,0.580,0.000,0.420,1.000,ComplianceLtg,0.000,1287.000
 Lights Internal Gains Nominal, F2-4 ELEVATOR CORE REGULATED LIGHTS,OFFICELIGHTS,THERMAL ZONE: F2-4 CORRIDOR,256.41,13.5,10.000,3.900E-002,0.739,0.000,0.580,0.000,0.420,1.000,ComplianceLtg,0.000,10.000
 Lights Internal Gains Nominal, F2-4 ELEVATOR N REGULATED LIGHTS,OFFICELIGHTS,THERMAL ZONE: F2-4 CORRIDOR,256.41,13.5,10.000,3.900E-002,0.739,0.000,0.580,0.000,0.420,1.000,ComplianceLtg,0.000,10.000
 Lights Internal Gains Nominal, F2-4 ELEVATOR S REGULATED LIGHTS,OFFICELIGHTS,THERMAL ZONE: F2-4 CORRIDOR,256.41,13.5,10.000,3.900E-002,0.739,0.000,0.580,0.000,0.420,1.000,ComplianceLtg,0.000,10.000
 Lights Internal Gains Nominal, F2-4 LAUNDRY REGULATED LIGHTS,OFFICELIGHTS,THERMAL ZONE: F2-4 CORRIDOR,256.41,13.5,81.000,0.316,5.983,0.000,0.580,0.000,0.420,1.000,ComplianceLtg,0.000,81.000
 Lights Internal Gains Nominal, F2-4 STAIR E REGULATED LIGHTS,OFFICELIGHTS,THERMAL ZONE: F2-4 CORRIDOR,256.41,13.5,90.000,0.351,6.648,0.000,0.580,0.000,0.420,1.000,ComplianceLtg,0.000,90.000
 Lights Internal Gains Nominal, F2-4 STAIR W REGULATED LIGHTS,OFFICELIGHTS,THERMAL ZONE: F2-4 CORRIDOR,256.41,13.5,90.000,0.351,6.648,0.000,0.580,0.000,0.420,1.000,ComplianceLtg,0.000,90.000
 Lights Internal Gains Nominal, F2-4 STUDIO SE NON-REGULATED LIGHTS,RESIDENTIALLIVINGLIGHTS,THERMAL ZONE: F2-4 STUDIO SE,50.17,2.0,270.000,5.382,135.000,0.000,0.580,0.000,0.420,1.000,NonComplianceLtg,0.000,270.000
 Lights Internal Gains Nominal, F2-4 STUDIO SW NON-REGULATED LIGHTS,RESIDENTIALLIVINGLIGHTS,THERMAL ZONE: F2-4 STUDIO SW,50.17,2.0,270.000,5.382,135.000,0.000,0.580,0.000,0.420,1.000,NonComplianceLtg,0.000,270.000
 Lights Internal Gains Nominal, F5 1-BED CORE NE NON-REGULATED LIGHTS,RESIDENTIALLIVINGLIGHTS,THERMAL ZONE: F5 1-BED CORE EAST,133.78,4.0,360.000,2.691,90.000,0.000,0.580,0.000,0.420,1.000,NonComplianceLtg,0.000,360.000
 Lights Internal Gains Nominal, F5 1-BED CORE SE NON-REGULATED LIGHTS,RESIDENTIALLIVINGLIGHTS,THERMAL ZONE: F5 1-BED CORE EAST,133.78,4.0,360.000,2.691,90.000,0.000,0.580,0.000,0.420,1.000,NonComplianceLtg,0.000,360.000
 Lights Internal Gains Nominal, F5 1-BED CORE N NON-REGULATED LIGHTS,RESIDENTIALLIVINGLIGHTS,THERMAL ZONE: F5 1-BED CORE N,66.89,2.0,360.000,5.382,180.000,0.000,0.580,0.000,0.420,1.000,NonComplianceLtg,0.000,360.000
 Lights Internal Gains Nominal, F5 1-BED CORE NW NON-REGULATED LIGHTS,RESIDENTIALLIVINGLIGHTS,THERMAL ZONE: F5 1-BED CORE WEST,133.78,4.0,360.000,2.691,90.000,0.000,0.580,0.000,0.420,1.000,NonComplianceLtg,0.000,360.000
 Lights Internal Gains Nominal, F5 1-BED CORE SW NON-REGULATED LIGHTS,RESIDENTIALLIVINGLIGHTS,THERMAL ZONE: F5 1-BED CORE WEST,133.78,4.0,360.000,2.691,90.000,0.000,0.580,0.000,0.420,1.000,NonComplianceLtg,0.000,360.000
 Lights Internal Gains Nominal, F5 1-BED N NON-REGULATED LIGHTS,RESIDENTIALLIVINGLIGHTS,THERMAL ZONE: F5 1-BED NORTH,345.60,10.0,372.000,1.076,37.200,0.000,0.580,0.000,0.420,1.000,NonComplianceLtg,0.000,372.000
 Lights Internal Gains Nominal, F5 1-BED NE CORE NON-REGULATED LIGHTS,RESIDENTIALLIVINGLIGHTS,THERMAL ZONE: F5 1-BED NORTH,345.60,10.0,372.000,1.076,37.200,0.000,0.580,0.000,0.420,1.000,NonComplianceLtg,0.000,372.000
 Lights Internal Gains Nominal, F5 1-BED NE OUTER NON-REGULATED LIGHTS,RESIDENTIALLIVINGLIGHTS,THERMAL ZONE: F5 1-BED NORTH,345.60,10.0,372.000,1.076,37.200,0.000,0.580,0.000,0.420,1.000,NonComplianceLtg,0.000,372.000
 Lights Internal Gains Nominal, F5 1-BED NW CORE NON-REGULATED LIGHTS,RESIDENTIALLIVINGLIGHTS,THERMAL ZONE: F5 1-BED NORTH,345.60,10.0,372.000,1.076,37.200,0.000,0.580,0.000,0.420,1.000,NonComplianceLtg,0.000,372.000
 Lights Internal Gains Nominal, F5 1-BED NW OUTER NON-REGULATED LIGHTS,RESIDENTIALLIVINGLIGHTS,THERMAL ZONE: F5 1-BED NORTH,345.60,10.0,372.000,1.076,37.200,0.000,0.580,0.000,0.420,1.000,NonComplianceLtg,0.000,372.000
 Lights Internal Gains Nominal, F5 2-BED CORE NE NON-REGULATED LIGHTS,RESIDENTIALLIVINGLIGHTS,THERMAL ZONE: F5 2-BED CORE NE-NW,200.67,6.0,540.000,2.691,90.000,0.000,0.580,0.000,0.420,1.000,NonComplianceLtg,0.000,540.000
 Lights Internal Gains Nominal, F5 2-BED CORE NW NON-REGULATED LIGHTS,RESIDENTIALLIVINGLIGHTS,THERMAL ZONE: F5 2-BED CORE NE-NW,200.67,6.0,540.000,2.691,90.000,0.000,0.580,0.000,0.420,1.000,NonComplianceLtg,0.000,540.000
 Lights Internal Gains Nominal, F5 2-BED NE NON-REGULATED LIGHTS,RESIDENTIALLIVINGLIGHTS,THERMAL ZONE: F5 2-BED EAST,301.01,9.0,540.000,1.794,60.000,0.000,0.580,0.000,0.420,1.000,NonComplianceLtg,0.000,540.000
 Lights Internal Gains Nominal, F5 2-BED SE CORE NON-REGULATED LIGHTS,RESIDENTIALLIVINGLIGHTS,THERMAL ZONE: F5 2-BED EAST,301.01,9.0,540.000,1.794,60.000,0.000,0.580,0.000,0.420,1.000,NonComplianceLtg,0.000,540.000
 Lights Internal Gains Nominal, F5 2-BED SE NON-REGULATED LIGHTS,RESIDENTIALLIVINGLIGHTS,THERMAL ZONE: F5 2-BED EAST,301.01,9.0,540.000,1.794,60.000,0.000,0.580,0.000,0.420,1.000,NonComplianceLtg,0.000,540.000
 Lights Internal Gains Nominal, F5 2-BED NW NON-REGULATED LIGHTS,RESIDENTIALLIVINGLIGHTS,THERMAL ZONE: F5 2-BED WEST,301.01,9.0,540.000,1.794,60.000,0.000,0.580,0.000,0.420,1.000,NonComplianceLtg,0.000,540.000
 Lights Internal Gains Nominal, F5 2-BED SW CORE NON-REGULATED LIGHTS,RESIDENTIALLIVINGLIGHTS,THERMAL ZONE: F5 2-BED WEST,301.01,9.0,540.000,1.794,60.000,0.000,0.580,0.000,0.420,1.000,NonComplianceLtg,0.000,540.000
 Lights Internal Gains Nominal, F5 2-BED SW NON-REGULATED LIGHTS,RESIDENTIALLIVINGLIGHTS,THERMAL ZONE: F5 2-BED WEST,301.01,9.0,540.000,1.794,60.000,0.000,0.580,0.000,0.420,1.000,NonComplianceLtg,0.000,540.000
 Lights Internal Gains Nominal, F5 3-BED NE NON-REGULATED LIGHTS,RESIDENTIALLIVINGLIGHTS,THERMAL ZONE: F5 3-BED NE,130.99,4.0,705.000,5.382,176.250,0.000,0.580,0.000,0.420,1.000,NonComplianceLtg,0.000,705.000
 Lights Internal Gains Nominal, F5 3-BED NW NON-REGULATED LIGHTS,RESIDENTIALLIVINGLIGHTS,THERMAL ZONE: F5 3-BED NW,130.99,4.0,705.000,5.382,176.250,0.000,0.580,0.000,0.420,1.000,NonComplianceLtg,0.000,705.000
 Lights Internal Gains Nominal, F5 CORRIDOR REGULATED LIGHTS,OFFICELIGHTS,THERMAL ZONE: F5 CORRIDOR,256.41,13.5,1287.000,5.019,95.069,0.000,0.580,0.000,0.420,1.000,ComplianceLtg,0.000,1287.000
 Lights Internal Gains Nominal, F5 ELEVATOR CORE REGULATED LIGHTS,OFFICELIGHTS,THERMAL ZONE: F5 CORRIDOR,256.41,13.5,10.000,3.900E-002,0.739,0.000,0.580,0.000,0.420,1.000,ComplianceLtg,0.000,10.000
 Lights Internal Gains Nominal, F5 ELEVATOR N REGULATED LIGHTS,OFFICELIGHTS,THERMAL ZONE: F5 CORRIDOR,256.41,13.5,10.000,3.900E-002,0.739,0.000,0.580,0.000,0.420,1.000,ComplianceLtg,0.000,10.000
 Lights Internal Gains Nominal, F5 ELEVATOR S REGULATED LIGHTS,OFFICELIGHTS,THERMAL ZONE: F5 CORRIDOR,256.41,13.5,10.000,3.900E-002,0.739,0.000,0.580,0.000,0.420,1.000,ComplianceLtg,0.000,10.000
 Lights Internal Gains Nominal, F5 LAUNDRY REGULATED LIGHTS,OFFICELIGHTS,THERMAL ZONE: F5 CORRIDOR,256.41,13.5,81.000,0.316,5.983,0.000,0.580,0.000,0.420,1.000,ComplianceLtg,0.000,81.000
 Lights Internal Gains Nominal, F5 STAIR E REGULATED LIGHTS,OFFICELIGHTS,THERMAL ZONE: F5 CORRIDOR,256.41,13.5,90.000,0.351,6.648,0.000,0.580,0.000,0.420,1.000,ComplianceLtg,0.000,90.000
 Lights Internal Gains Nominal, F5 STAIR W REGULATED LIGHTS,OFFICELIGHTS,THERMAL ZONE: F5 CORRIDOR,256.41,13.5,90.000,0.351,6.648,0.000,0.580,0.000,0.420,1.000,ComplianceLtg,0.000,90.000
 Lights Internal Gains Nominal, F5 STUDIO SE NON-REGULATED LIGHTS,RESIDENTIALLIVINGLIGHTS,THERMAL ZONE: F5 STUDIO SE,50.17,2.0,270.000,5.382,135.000,0.000,0.580,0.000,0.420,1.000,NonComplianceLtg,0.000,270.000
 Lights Internal Gains Nominal, F5 STUDIO SW NON-REGULATED LIGHTS,RESIDENTIALLIVINGLIGHTS,THERMAL ZONE: F5 STUDIO SW,50.17,2.0,270.000,5.382,135.000,0.000,0.580,0.000,0.420,1.000,NonComplianceLtg,0.000,270.000
 Lights Internal Gains Nominal, PARKING GARAGE REGULATED LIGHTS,PARKINGLIGHTS,THERMAL ZONE: PARKING GARAGE,2591.99,69.8,2790.000,1.076,40.000,0.000,0.580,0.000,0.420,1.000,NonComplianceLtg,0.000,2790.000
! <ElectricEquipment Internal Gains Nominal>,Name,Schedule Name,Zone Name,Zone Floor Area {m2},# Zone Occupants,Equipment Level {W},Equipment/Floor Area {W/m2},Equipment per person {W/person},Fraction Latent,Fraction Radiant,Fraction Lost,Fraction Convected,End-Use SubCategory,Nominal Minimum Equipment Level {W},Nominal Maximum Equipment Level {W}
 ElectricEquipment Internal Gains Nominal, F1 BUSINESS CENTER RECEPTICLE LOADS,RETAILRECEPTACLE,THERMAL ZONE: F1 BUSINESS CENTER,33.45,12.0,360.000,10.764,29.999,0.000,0.200,0.000,0.800,Receptacle,0.000,360.000
 ElectricEquipment Internal Gains Nominal, F1 ELEVATOR CORE RECEPTICLE LOADS,RETAILRECEPTACLE,THERMAL ZONE: F1 CORRIDOR,178.37,9.3,75.000,0.420,8.032,0.000,0.200,0.000,0.800,Receptacle,0.000,75.000
 ElectricEquipment Internal Gains Nominal, F1 ELEVATOR N RECEPTICLE LOADS,RETAILRECEPTACLE,THERMAL ZONE: F1 CORRIDOR,178.37,9.3,75.000,0.420,8.032,0.000,0.200,0.000,0.800,Receptacle,0.000,75.000
 ElectricEquipment Internal Gains Nominal, F1 ELEVATOR S RECEPTICLE LOADS,RETAILRECEPTACLE,THERMAL ZONE: F1 CORRIDOR,178.37,9.3,75.000,0.420,8.032,0.000,0.200,0.000,0.800,Receptacle,0.000,75.000
 ElectricEquipment Internal Gains Nominal, F1 FITNESS CENTER RECEPTICLE LOADS,RETAILRECEPTACLE,THERMAL ZONE: F1 FITNESS CENTER,83.61,9.0,450.000,5.382,50.000,0.000,0.200,0.000,0.800,Receptacle,0.000,450.000
 ElectricEquipment Internal Gains Nominal, F1 LEASING OFFICE RECEPTICLE LOADS,RETAILRECEPTACLE,THERMAL ZONE: F1 LEASING OFFICE,32.05,1.7,517.500,16.146,300.000,0.000,0.200,0.000,0.800,Receptacle,0.000,517.500
 ElectricEquipment Internal Gains Nominal, F1 LOUNGE RECEPTICLE LOADS,RETAILRECEPTACLE,THERMAL ZONE: F1 LOUNGE,97.55,35.0,1050.000,10.764,29.999,0.000,0.200,0.000,0.800,Receptacle,0.000,1050.000
 ElectricEquipment Internal Gains Nominal, F1 MECHANICAL ROOM RECEPTICLE LOADS,RETAILRECEPTACLE,THERMAL ZONE: F1 MECHANICAL ROOM,40.13,0.6,1296.000,32.292,2000.000,0.000,0.200,0.000,0.800,Receptacle,0.000,1296.000
 ElectricEquipment Internal Gains Nominal, F1 RETAIL N CORE RECEPTICLE LOADS,RETAILRECEPTACLE,THERMAL ZONE: F1 RETAIL N-NW,556.02,49.9,1665.000,2.994,33.377,0.000,0.200,0.000,0.800,Receptacle,0.000,1665.000
 ElectricEquipment Internal Gains Nominal, F1 RETAIL NW INNER CORE RECEPTICLE LOADS,RETAILRECEPTACLE,THERMAL ZONE: F1 RETAIL N-NW,556.02,49.9,1440.000,2.590,28.866,0.000,0.200,0.000,0.800,Receptacle,0.000,1440.000
 ElectricEquipment Internal Gains Nominal, F1 RETAIL NW OUTER CORE RECEPTICLE LOADS,RETAILRECEPTACLE,THERMAL ZONE: F1 RETAIL N-NW,556.02,49.9,1440.000,2.590,28.866,0.000,0.200,0.000,0.800,Receptacle,0.000,1440.000
 ElectricEquipment Internal Gains Nominal, F1 RETAIL NW OUTER RECEPTICLE LOADS,RETAILRECEPTACLE,THERMAL ZONE: F1 RETAIL N-NW,556.02,49.9,1440.000,2.590,28.866,0.000,0.200,0.000,0.800,Receptacle,0.000,1440.000
 ElectricEquipment Internal Gains Nominal, F1 RETAIL NE CORE RECEPTICLE LOADS,RETAILRECEPTACLE,THERMAL ZONE: F1 RETAIL NE,401.34,36.0,1440.000,3.588,39.992,0.000,0.200,0.000,0.800,Receptacle,0.000,1440.000
 ElectricEquipment Internal Gains Nominal, F1 RETAIL NE INNER RECEPTICLE LOADS,RETAILRECEPTACLE,THERMAL ZONE: F1 RETAIL NE,401.34,36.0,1440.000,3.588,39.992,0.000,0.200,0.000,0.800,Receptacle,0.000,1440.000
 ElectricEquipment Internal Gains Nominal, F1 RETAIL NE OUTER RECEPTICLE LOADS,RETAILRECEPTACLE,THERMAL ZONE: F1 RETAIL NE,401.34,36.0,1440.000,3.588,39.992,0.000,0.200,0.000,0.800,Receptacle,0.000,1440.000
 ElectricEquipment Internal Gains Nominal, F1 RETAIL SE BOTTOM RECEPTICLE LOADS,RETAILRECEPTACLE,THERMAL ZONE: F1 RETAIL SE,267.56,24.0,1440.000,5.382,59.988,0.000,0.200,0.000,0.800,Receptacle,0.000,1440.000
 ElectricEquipment Internal Gains Nominal, F1 RETAIL SE TOP RECEPTICLE LOADS,RETAILRECEPTACLE,THERMAL ZONE: F1 RETAIL SE,267.56,24.0,1440.000,5.382,59.988,0.000,0.200,0.000,0.800,Receptacle,0.000,1440.000
 ElectricEquipment Internal Gains Nominal, F1 RETAIL SW BOTTOM RECEPTICLE LOADS,RETAILRECEPTACLE,THERMAL ZONE: F1 RETAIL SW,411.37,36.9,1440.000,3.500,39.017,0.000,0.200,0.000,0.800,Receptacle,0.000,1440.000
 ElectricEquipment Internal Gains Nominal, F1 RETAIL SW CORE RECEPTICLE LOADS,RETAILRECEPTACLE,THERMAL ZONE: F1 RETAIL SW,411.37,36.9,1440.000,3.500,39.017,0.000,0.200,0.000,0.800,Receptacle,0.000,1440.000
 ElectricEquipment Internal Gains Nominal, F1 RETAIL SW TOP RECEPTICLE LOADS,RETAILRECEPTACLE,THERMAL ZONE: F1 RETAIL SW,411.37,36.9,1548.000,3.763,41.943,0.000,0.200,0.000,0.800,Receptacle,0.000,1548.000
 ElectricEquipment Internal Gains Nominal, F2-4 1-BED CORE NE RECEPTICLE LOADS,RESIDENTIALLIVINGRECEPTACLE,THERMAL ZONE: F2-4 1-BED CORE EAST,133.78,4.0,360.000,2.691,90.000,0.000,0.200,0.000,0.800,Receptacle,0.000,360.000
 ElectricEquipment Internal Gains Nominal, F2-4 1-BED CORE SE RECEPTICLE LOADS,RESIDENTIALLIVINGRECEPTACLE,THERMAL ZONE: F2-4 1-BED CORE EAST,133.78,4.0,360.000,2.691,90.000,0.000,0.200,0.000,0.800,Receptacle,0.000,360.000
 ElectricEquipment Internal Gains Nominal, F2-4 1-BED CORE N RECEPTICLE LOADS,RESIDENTIALLIVINGRECEPTACLE,THERMAL ZONE: F2-4 1-BED CORE N,66.89,2.0,360.000,5.382,180.000,0.000,0.200,0.000,0.800,Receptacle,0.000,360.000
 ElectricEquipment Internal Gains Nominal, F2-4 1-BED CORE NW RECEPTICLE LOADS,RESIDENTIALLIVINGRECEPTACLE,THERMAL ZONE: F2-4 1-BED CORE WEST,133.78,4.0,360.000,2.691,90.000,0.000,0.200,0.000,0.800,Receptacle,0.000,360.000
 ElectricEquipment Internal Gains Nominal, F2-4 1-BED CORE SW RECEPTICLE LOADS,RESIDENTIALLIVINGRECEPTACLE,THERMAL ZONE: F2-4 1-BED CORE WEST,133.78,4.0,360.000,2.691,90.000,0.000,0.200,0.000,0.800,Receptacle,0.000,360.000
 ElectricEquipment Internal Gains Nominal, F2-4 1-BED N RECEPTICLE LOADS,RESIDENTIALLIVINGRECEPTACLE,THERMAL ZONE: F2-4 1-BED NORTH,345.60,10.0,372.000,1.076,37.200,0.000,0.200,0.000,0.800,Receptacle,0.000,372.000
 ElectricEquipment Internal Gains Nominal, F2-4 1-BED NE CORE RECEPTICLE LOADS,RESIDENTIALLIVINGRECEPTACLE,THERMAL ZONE: F2-4 1-BED NORTH,345.60,10.0,372.000,1.076,37.200,0.000,0.200,0.000,0.800,Receptacle,0.000,372.000
 ElectricEquipment Internal Gains Nominal, F2-4 1-BED NE OUTER RECEPTICLE LOADS,RESIDENTIALLIVINGRECEPTACLE,THERMAL ZONE: F2-4 1-BED NORTH,345.60,10.0,372.000,1.076,37.200,0.000,0.200,0.000,0.800,Receptacle,0.000,372.000
 ElectricEquipment Internal Gains Nominal, F2-4 1-BED NW CORE RECEPTICLE LOADS,RESIDENTIALLIVINGRECEPTACLE,THERMAL ZONE: F2-4 1-BED NORTH,345.60,10.0,372.000,1.076,37.200,0.000,0.200,0.000,0.800,Receptacle,0.000,372.000
 ElectricEquipment Internal Gains Nominal, F2-4 1-BED NW OUTER RECEPTICLE LOADS,RESIDENTIALLIVINGRECEPTACLE,THERMAL ZONE: F2-4 1-BED NORTH,345.60,10.0,372.000,1.076,37.200,0.000,0.200,0.000,0.800,Receptacle,0.000,372.000
 ElectricEquipment Internal Gains Nominal, F2-4 2-BED CORE NE RECEPTICLE LOADS,RESIDENTIALLIVINGRECEPTACLE,THERMAL ZONE: F2-4 2-BED CORE NE-NW,200.67,6.0,540.000,2.691,90.000,0.000,0.200,0.000,0.800,Receptacle,0.000,540.000
 ElectricEquipment Internal Gains Nominal, F2-4 2-BED CORE NW RECEPTICLE LOADS,RESIDENTIALLIVINGRECEPTACLE,THERMAL ZONE: F2-4 2-BED CORE NE-NW,200.67,6.0,540.000,2.691,90.000,0.000,0.200,0.000,0.800,Receptacle,0.000,540.000
 ElectricEquipment Internal Gains Nominal, F2-4 2-BED NE RECEPTICLE LOADS,RESIDENTIALLIVINGRECEPTACLE,THERMAL ZONE: F2-4 2-BED EAST,301.01,9.0,540.000,1.794,60.000,0.000,0.200,0.000,0.800,Receptacle,0.000,540.000
 ElectricEquipment Internal Gains Nominal, F2-4 2-BED SE CORE RECEPTICLE LOADS,RESIDENTIALLIVINGRECEPTACLE,THERMAL ZONE: F2-4 2-BED EAST,301.01,9.0,540.000,1.794,60.000,0.000,0.200,0.000,0.800,Receptacle,0.000,540.000
 ElectricEquipment Internal Gains Nominal, F2-4 2-BED SE RECEPTICLE LOADS,RESIDENTIALLIVINGRECEPTACLE,THERMAL ZONE: F2-4 2-BED EAST,301.01,9.0,540.000,1.794,60.000,0.000,0.200,0.000,0.800,Receptacle,0.000,540.000
 ElectricEquipment Internal Gains Nominal, F2-4 2-BED NW RECEPTICLE LOADS,RESIDENTIALLIVINGRECEPTACLE,THERMAL ZONE: F2-4 2-BED WEST,301.01,9.0,540.000,1.794,60.000,0.000,0.200,0.000,0.800,Receptacle,0.000,540.000
 ElectricEquipment Internal Gains Nominal, F2-4 2-BED SW CORE RECEPTICLE LOADS,RESIDENTIALLIVINGRECEPTACLE,THERMAL ZONE: F2-4 2-BED WEST,301.01,9.0,540.000,1.794,60.000,0.000,0.200,0.000,0.800,Receptacle,0.000,540.000
 ElectricEquipment Internal Gains Nominal, F2-4 2-BED SW RECEPTICLE LOADS,RESIDENTIALLIVINGRECEPTACLE,THERMAL ZONE: F2-4 2-BED WEST,301.01,9.0,540.000,1.794,60.000,0.000,0.200,0.000,0.800,Receptacle,0.000,540.000
 ElectricEquipment Internal Gains Nominal, F2-4 3-BED NE RECEPTICLE LOADS,RESIDENTIALLIVINGRECEPTACLE,THERMAL ZONE: F2-4 3-BED NE,130.99,4.0,705.000,5.382,176.250,0.000,0.200,0.000,0.800,Receptacle,0.000,705.000
 ElectricEquipment Internal Gains Nominal, F2-4 3-BED NW RECEPTICLE LOADS,RESIDENTIALLIVINGRECEPTACLE,THERMAL ZONE: F2-4 3-BED NW,130.99,4.0,705.000,5.382,176.250,0.000,0.200,0.000,0.800,Receptacle,0.000,705.000
 ElectricEquipment Internal Gains Nominal, F2-4 ELEVATOR CORE RECEPTICLE LOADS,OFFICERECEPTACLE,THERMAL ZONE: F2-4 CORRIDOR,256.41,13.5,75.000,0.292,5.540,0.000,0.200,0.000,0.800,Receptacle,0.000,75.000
 ElectricEquipment Internal Gains Nominal, F2-4 ELEVATOR N RECEPTICLE LOADS,OFFICERECEPTACLE,THERMAL ZONE: F2-4 CORRIDOR,256.41,13.5,75.000,0.292,5.540,0.000,0.200,0.000,0.800,Receptacle,0.000,75.000
 ElectricEquipment Internal Gains Nominal, F2-4 ELEVATOR S RECEPTICLE LOADS,OFFICERECEPTACLE,THERMAL ZONE: F2-4 CORRIDOR,256.41,13.5,75.000,0.292,5.540,0.000,0.200,0.000,0.800,Receptacle,0.000,75.000
 ElectricEquipment Internal Gains Nominal, F2-4 LAUNDRY RECEPTICLE LOADS,OFFICERECEPTACLE,THERMAL ZONE: F2-4 CORRIDOR,256.41,13.5,540.000,2.106,39.889,0.000,0.200,0.000,0.800,Receptacle,0.000,540.000
 ElectricEquipment Internal Gains Nominal, F2-4 STUDIO SE RECEPTICLE LOADS,RESIDENTIALLIVINGRECEPTACLE,THERMAL ZONE: F2-4 STUDIO SE,50.17,2.0,270.000,5.382,135.000,0.000,0.200,0.000,0.800,Receptacle,0.000,270.000
 ElectricEquipment Internal Gains Nominal, F2-4 STUDIO SW RECEPTICLE LOADS,RESIDENTIALLIVINGRECEPTACLE,THERMAL ZONE: F2-4 STUDIO SW,50.17,2.0,270.000,5.382,135.000,0.000,0.200,0.000,0.800,Receptacle,0.000,270.000
 ElectricEquipment Internal Gains Nominal, F5 1-BED CORE NE RECEPTICLE LOADS,RESIDENTIALLIVINGRECEPTACLE,THERMAL ZONE: F5 1-BED CORE EAST,133.78,4.0,360.000,2.691,90.000,0.000,0.200,0.000,0.800,Receptacle,0.000,360.000
 ElectricEquipment Internal Gains Nominal, F5 1-BED CORE SE RECEPTICLE LOADS,RESIDENTIALLIVINGRECEPTACLE,THERMAL ZONE: F5 1-BED CORE EAST,133.78,4.0,360.000,2.691,90.000,0.000,0.200,0.000,0.800,Receptacle,0.000,360.000
 ElectricEquipment Internal Gains Nominal, F5 1-BED CORE N RECEPTICLE LOADS,RESIDENTIALLIVINGRECEPTACLE,THERMAL ZONE: F5 1-BED CORE N,66.89,2.0,360.000,5.382,180.000,0.000,0.200,0.000,0.800,Receptacle,0.000,360.000
 ElectricEquipment Internal Gains Nominal, F5 1-BED CORE NW RECEPTICLE LOADS,RESIDENTIALLIVINGRECEPTACLE,THERMAL ZONE: F5 1-BED CORE WEST,133.78,4.0,360.000,2.691,90.000,0.000,0.200,0.000,0.800,Receptacle,0.000,360.000
 ElectricEquipment Internal Gains Nominal, F5 1-BED CORE SW RECEPTICLE LOADS,RESIDENTIALLIVINGRECEPTACLE,THERMAL ZONE: F5 1-BED CORE WEST,133.78,4.0,360.000,2.691,90.000,0.000,0.200,0.000,0.800,Receptacle,0.000,360.000
 ElectricEquipment Internal Gains Nominal, F5 1-BED N RECEPTICLE LOADS,RESIDENTIALLIVINGRECEPTACLE,THERMAL ZONE: F5 1-BED NORTH,345.60,10.0,372.000,1.076,37.200,0.000,0.200,0.000,0.800,Receptacle,0.000,372.000
 ElectricEquipment Internal Gains Nominal, F5 1-BED NE CORE RECEPTICLE LOADS,RESIDENTIALLIVINGRECEPTACLE,THERMAL ZONE: F5 1-BED NORTH,345.60,10.0,372.000,1.076,37.200,0.000,0.200,0.000,0.800,Receptacle,0.000,372.000
 ElectricEquipment Internal Gains Nominal, F5 1-BED NE OUTER RECEPTICLE LOADS,RESIDENTIALLIVINGRECEPTACLE,THERMAL ZONE: F5 1-BED NORTH,345.60,10.0,372.000,1.076,37.200,0.000,0.200,0.000,0.800,Receptacle,0.000,372.000
 ElectricEquipment Internal Gains Nominal, F5 1-BED NW CORE RECEPTICLE LOADS,RESIDENTIALLIVINGRECEPTACLE,THERMAL ZONE: F5 1-BED NORTH,345.60,10.0,372.000,1.076,37.200,0.000,0.200,0.000,0.800,Receptacle,0.000,372.000
 ElectricEquipment Internal Gains Nominal, F5 1-BED NW OUTER RECEPTICLE LOADS,RESIDENTIALLIVINGRECEPTACLE,THERMAL ZONE: F5 1-BED NORTH,345.60,10.0,372.000,1.076,37.200,0.000,0.200,0.000,0.800,Receptacle,0.000,372.000
 ElectricEquipment Internal Gains Nominal, F5 2-BED CORE NE RECEPTICLE LOADS,RESIDENTIALLIVINGRECEPTACLE,THERMAL ZONE: F5 2-BED CORE NE-NW,200.67,6.0,540.000,2.691,90.000,0.000,0.200,0.000,0.800,Receptacle,0.000,540.000
 ElectricEquipment Internal Gains Nominal, F5 2-BED CORE NW RECEPTICLE LOADS,RESIDENTIALLIVINGRECEPTACLE,THERMAL ZONE: F5 2-BED CORE NE-NW,200.67,6.0,540.000,2.691,90.000,0.000,0.200,0.000,0.800,Receptacle,0.000,540.000
 ElectricEquipment Internal Gains Nominal, F5 2-BED NE RECEPTICLE LOADS,RESIDENTIALLIVINGRECEPTACLE,THERMAL ZONE: F5 2-BED EAST,301.01,9.0,540.000,1.794,60.000,0.000,0.200,0.000,0.800,Receptacle,0.000,540.000
 ElectricEquipment Internal Gains Nominal, F5 2-BED SE CORE RECEPTICLE LOADS,RESIDENTIALLIVINGRECEPTACLE,THERMAL ZONE: F5 2-BED EAST,301.01,9.0,540.000,1.794,60.000,0.000,0.200,0.000,0.800,Receptacle,0.000,540.000
 ElectricEquipment Internal Gains Nominal, F5 2-BED SE RECEPTICLE LOADS,RESIDENTIALLIVINGRECEPTACLE,THERMAL ZONE: F5 2-BED EAST,301.01,9.0,540.000,1.794,60.000,0.000,0.200,0.000,0.800,Receptacle,0.000,540.000
 ElectricEquipment Internal Gains Nominal, F5 2-BED NW RECEPTICLE LOADS,RESIDENTIALLIVINGRECEPTACLE,THERMAL ZONE: F5 2-BED WEST,301.01,9.0,540.000,1.794,60.000,0.000,0.200,0.000,0.800,Receptacle,0.000,540.000
 ElectricEquipment Internal Gains Nominal, F5 2-BED SW CORE RECEPTICLE LOADS,RESIDENTIALLIVINGRECEPTACLE,THERMAL ZONE: F5 2-BED WEST,301.01,9.0,540.000,1.794,60.000,0.000,0.200,0.000,0.800,Receptacle,0.000,540.000
 ElectricEquipment Internal Gains Nominal, F5 2-BED SW RECEPTICLE LOADS,RESIDENTIALLIVINGRECEPTACLE,THERMAL ZONE: F5 2-BED WEST,301.01,9.0,540.000,1.794,60.000,0.000,0.200,0.000,0.800,Receptacle,0.000,540.000
 ElectricEquipment Internal Gains Nominal, F5 3-BED NE RECEPTICLE LOADS,RESIDENTIALLIVINGRECEPTACLE,THERMAL ZONE: F5 3-BED NE,130.99,4.0,705.000,5.382,176.250,0.000,0.200,0.000,0.800,Receptacle,0.000,705.000
 ElectricEquipment Internal Gains Nominal, F5 3-BED NW RECEPTICLE LOADS,RESIDENTIALLIVINGRECEPTACLE,THERMAL ZONE: F5 3-BED NW,130.99,4.0,705.000,5.382,176.250,0.000,0.200,0.000,0.800,Receptacle,0.000,705.000
 ElectricEquipment Internal Gains Nominal, F5 ELEVATOR CORE RECEPTICLE LOADS,OFFICERECEPTACLE,THERMAL ZONE: F5 CORRIDOR,256.41,13.5,75.000,0.292,5.540,0.000,0.200,0.000,0.800,Receptacle,0.000,75.000
 ElectricEquipment Internal Gains Nominal, F5 ELEVATOR N RECEPTICLE LOADS,OFFICERECEPTACLE,THERMAL ZONE: F5 CORRIDOR,256.41,13.5,75.000,0.292,5.540,0.000,0.200,0.000,0.800,Receptacle,0.000,75.000
 ElectricEquipment Internal Gains Nominal, F5 ELEVATOR S RECEPTICLE LOADS,OFFICERECEPTACLE,THERMAL ZONE: F5 CORRIDOR,256.41,13.5,75.000,0.292,5.540,0.000,0.200,0.000,0.800,Receptacle,0.000,75.000
 ElectricEquipment Internal Gains Nominal, F5 LAUNDRY RECEPTICLE LOADS,OFFICERECEPTACLE,THERMAL ZONE: F5 CORRIDOR,256.41,13.5,540.000,2.106,39.889,0.000,0.200,0.000,0.800,Receptacle,0.000,540.000
 ElectricEquipment Internal Gains Nominal, F5 STUDIO SE RECEPTICLE LOADS,RESIDENTIALLIVINGRECEPTACLE,THERMAL ZONE: F5 STUDIO SE,50.17,2.0,270.000,5.382,135.000,0.000,0.200,0.000,0.800,Receptacle,0.000,270.000
 ElectricEquipment Internal Gains Nominal, F5 STUDIO SW RECEPTICLE LOADS,RESIDENTIALLIVINGRECEPTACLE,THERMAL ZONE: F5 STUDIO SW,50.17,2.0,270.000,5.382,135.000,0.000,0.200,0.000,0.800,Receptacle,0.000,270.000
! <GasEquipment Internal Gains Nominal>,Name,Schedule Name,Zone Name,Zone Floor Area {m2},# Zone Occupants,Equipment Level {W},Equipment/Floor Area {W/m2},Equipment per person {W/person},Fraction Latent,Fraction Radiant,Fraction Lost,Fraction Convected,End-Use SubCategory,Nominal Minimum Equipment Level {W},Nominal Maximum Equipment Level {W}
 GasEquipment Internal Gains Nominal, F2-4 1-BED CORE NE GAS EQUIPMENT LOADS,RESIDENTIALLIVINGGASEQUIP,THERMAL ZONE: F2-4 1-BED CORE EAST,133.78,4.0,143.994,1.076,35.998,0.000,0.150,0.850,0.000,Receptacle,0.000,143.994
 GasEquipment Internal Gains Nominal, F2-4 1-BED CORE SE GAS EQUIPMENT LOADS,RESIDENTIALLIVINGGASEQUIP,THERMAL ZONE: F2-4 1-BED CORE EAST,133.78,4.0,143.994,1.076,35.998,0.000,0.150,0.850,0.000,Receptacle,0.000,143.994
 GasEquipment Internal Gains Nominal, F2-4 1-BED CORE N GAS EQUIPMENT LOADS,RESIDENTIALLIVINGGASEQUIP,THERMAL ZONE: F2-4 1-BED CORE N,66.89,2.0,143.994,2.153,71.997,0.000,0.150,0.850,0.000,Receptacle,0.000,143.994
 GasEquipment Internal Gains Nominal, F2-4 1-BED CORE NW GAS EQUIPMENT LOADS,RESIDENTIALLIVINGGASEQUIP,THERMAL ZONE: F2-4 1-BED CORE WEST,133.78,4.0,143.994,1.076,35.998,0.000,0.150,0.850,0.000,Receptacle,0.000,143.994
 GasEquipment Internal Gains Nominal, F2-4 1-BED CORE SW GAS EQUIPMENT LOADS,RESIDENTIALLIVINGGASEQUIP,THERMAL ZONE: F2-4 1-BED CORE WEST,133.78,4.0,143.994,1.076,35.998,0.000,0.150,0.850,0.000,Receptacle,0.000,143.994
 GasEquipment Internal Gains Nominal, F2-4 1-BED N GAS EQUIPMENT LOADS,RESIDENTIALLIVINGGASEQUIP,THERMAL ZONE: F2-4 1-BED NORTH,345.60,10.0,148.794,0.431,14.879,0.000,0.150,0.850,0.000,Receptacle,0.000,148.794
 GasEquipment Internal Gains Nominal, F2-4 1-BED NE CORE GAS EQUIPMENT LOADS,RESIDENTIALLIVINGGASEQUIP,THERMAL ZONE: F2-4 1-BED NORTH,345.60,10.0,148.794,0.431,14.879,0.000,0.150,0.850,0.000,Receptacle,0.000,148.794
 GasEquipment Internal Gains Nominal, F2-4 1-BED NE OUTER GAS EQUIPMENT LOADS,RESIDENTIALLIVINGGASEQUIP,THERMAL ZONE: F2-4 1-BED NORTH,345.60,10.0,148.794,0.431,14.879,0.000,0.150,0.850,0.000,Receptacle,0.000,148.794
 GasEquipment Internal Gains Nominal, F2-4 1-BED NW CORE GAS EQUIPMENT LOADS,RESIDENTIALLIVINGGASEQUIP,THERMAL ZONE: F2-4 1-BED NORTH,345.60,10.0,148.794,0.431,14.879,0.000,0.150,0.850,0.000,Receptacle,0.000,148.794
 GasEquipment Internal Gains Nominal, F2-4 1-BED NW OUTER GAS EQUIPMENT LOADS,RESIDENTIALLIVINGGASEQUIP,THERMAL ZONE: F2-4 1-BED NORTH,345.60,10.0,148.794,0.431,14.879,0.000,0.150,0.850,0.000,Receptacle,0.000,148.794
 GasEquipment Internal Gains Nominal, F2-4 2-BED CORE NE GAS EQUIPMENT LOADS,RESIDENTIALLIVINGGASEQUIP,THERMAL ZONE: F2-4 2-BED CORE NE-NW,200.67,6.0,215.991,1.076,35.998,0.000,0.150,0.850,0.000,Receptacle,0.000,215.991
 GasEquipment Internal Gains Nominal, F2-4 2-BED CORE NW GAS EQUIPMENT LOADS,RESIDENTIALLIVINGGASEQUIP,THERMAL ZONE: F2-4 2-BED CORE NE-NW,200.67,6.0,215.991,1.076,35.998,0.000,0.150,0.850,0.000,Receptacle,0.000,215.991
 GasEquipment Internal Gains Nominal, F2-4 2-BED NE GAS EQUIPMENT LOADS,RESIDENTIALLIVINGGASEQUIP,THERMAL ZONE: F2-4 2-BED EAST,301.01,9.0,215.991,0.718,23.999,0.000,0.150,0.850,0.000,Receptacle,0.000,215.991
 GasEquipment Internal Gains Nominal, F2-4 2-BED SE CORE GAS EQUIPMENT LOADS,RESIDENTIALLIVINGGASEQUIP,THERMAL ZONE: F2-4 2-BED EAST,301.01,9.0,215.991,0.718,23.999,0.000,0.150,0.850,0.000,Receptacle,0.000,215.991
 GasEquipment Internal Gains Nominal, F2-4 2-BED SE GAS EQUIPMENT LOADS,RESIDENTIALLIVINGGASEQUIP,THERMAL ZONE: F2-4 2-BED EAST,301.01,9.0,215.991,0.718,23.999,0.000,0.150,0.850,0.000,Receptacle,0.000,215.991
 GasEquipment Internal Gains Nominal, F2-4 2-BED NW GAS EQUIPMENT LOADS,RESIDENTIALLIVINGGASEQUIP,THERMAL ZONE: F2-4 2-BED WEST,301.01,9.0,215.991,0.718,23.999,0.000,0.150,0.850,0.000,Receptacle,0.000,215.991
 GasEquipment Internal Gains Nominal, F2-4 2-BED SW CORE GAS EQUIPMENT LOADS,RESIDENTIALLIVINGGASEQUIP,THERMAL ZONE: F2-4 2-BED WEST,301.01,9.0,215.991,0.718,23.999,0.000,0.150,0.850,0.000,Receptacle,0.000,215.991
 GasEquipment Internal Gains Nominal, F2-4 2-BED SW GAS EQUIPMENT LOADS,RESIDENTIALLIVINGGASEQUIP,THERMAL ZONE: F2-4 2-BED WEST,301.01,9.0,215.991,0.718,23.999,0.000,0.150,0.850,0.000,Receptacle,0.000,215.991
 GasEquipment Internal Gains Nominal, F2-4 3-BED NE GAS EQUIPMENT LOADS,RESIDENTIALLIVINGGASEQUIP,THERMAL ZONE: F2-4 3-BED NE,130.99,4.0,281.988,2.153,70.497,0.000,0.150,0.850,0.000,Receptacle,0.000,281.988
 GasEquipment Internal Gains Nominal, F2-4 3-BED NW GAS EQUIPMENT LOADS,RESIDENTIALLIVINGGASEQUIP,THERMAL ZONE: F2-4 3-BED NW,130.99,4.0,281.988,2.153,70.497,0.000,0.150,0.850,0.000,Receptacle,0.000,281.988
 GasEquipment Internal Gains Nominal, F2-4 LAUNDRY GAS EQUIPMENT LOADS,OFFICEGASEQUIP,THERMAL ZONE: F2-4 CORRIDOR,256.41,13.5,39.598,0.154,2.925,0.000,0.150,0.850,0.000,Receptacle,0.000,39.598
 GasEquipment Internal Gains Nominal, F2-4 STUDIO SE GAS EQUIPMENT LOADS,RESIDENTIALLIVINGGASEQUIP,THERMAL ZONE: F2-4 STUDIO SE,50.17,2.0,107.996,2.153,53.998,0.000,0.150,0.850,0.000,Receptacle,0.000,107.996
 GasEquipment Internal Gains Nominal, F2-4 STUDIO SW GAS EQUIPMENT LOADS,RESIDENTIALLIVINGGASEQUIP,THERMAL ZONE: F2-4 STUDIO SW,50.17,2.0,107.996,2.153,53.998,0.000,0.150,0.850,0.000,Receptacle,0.000,107.996
 GasEquipment Internal Gains Nominal, F5 1-BED CORE NE GAS EQUIPMENT LOADS,RESIDENTIALLIVINGGASEQUIP,THERMAL ZONE: F5 1-BED CORE EAST,133.78,4.0,143.994,1.076,35.998,0.000,0.150,0.850,0.000,Receptacle,0.000,143.994
 GasEquipment Internal Gains Nominal, F5 1-BED CORE SE GAS EQUIPMENT LOADS,RESIDENTIALLIVINGGASEQUIP,THERMAL ZONE: F5 1-BED CORE EAST,133.78,4.0,143.994,1.076,35.998,0.000,0.150,0.850,0.000,Receptacle,0.000,143.994
 GasEquipment Internal Gains Nominal, F5 1-BED CORE N GAS EQUIPMENT LOADS,RESIDENTIALLIVINGGASEQUIP,THERMAL ZONE: F5 1-BED CORE N,66.89,2.0,143.994,2.153,71.997,0.000,0.150,0.850,0.000,Receptacle,0.000,143.994
 GasEquipment Internal Gains Nominal, F5 1-BED CORE NW GAS EQUIPMENT LOADS,RESIDENTIALLIVINGGASEQUIP,THERMAL ZONE: F5 1-BED CORE WEST,133.78,4.0,143.994,1.076,35.998,0.000,0.150,0.850,0.000,Receptacle,0.000,143.994
 GasEquipment Internal Gains Nominal, F5 1-BED CORE SW GAS EQUIPMENT LOADS,RESIDENTIALLIVINGGASEQUIP,THERMAL ZONE: F5 1-BED CORE WEST,133.78,4.0,143.994,1.076,35.998,0.000,0.150,0.850,0.000,Receptacle,0.000,143.994
 GasEquipment Internal Gains Nominal, F5 1-BED N GAS EQUIPMENT LOADS,RESIDENTIALLIVINGGASEQUIP,THERMAL ZONE: F5 1-BED NORTH,345.60,10.0,148.794,0.431,14.879,0.000,0.150,0.850,0.000,Receptacle,0.000,148.794
 GasEquipment Internal Gains Nominal, F5 1-BED NE CORE GAS EQUIPMENT LOADS,RESIDENTIALLIVINGGASEQUIP,THERMAL ZONE: F5 1-BED NORTH,345.60,10.0,148.794,0.431,14.879,0.000,0.150,0.850,0.000,Receptacle,0.000,148.794
 GasEquipment Internal Gains Nominal, F5 1-BED NE OUTER GAS EQUIPMENT LOADS,RESIDENTIALLIVINGGASEQUIP,THERMAL ZONE: F5 1-BED NORTH,345.60,10.0,148.794,0.431,14.879,0.000,0.150,0.850,0.000,Receptacle,0.000,148.794
 GasEquipment Internal Gains Nominal, F5 1-BED NW CORE GAS EQUIPMENT LOADS,RESIDENTIALLIVINGGASEQUIP,THERMAL ZONE: F5 1-BED NORTH,345.60,10.0,148.794,0.431,14.879,0.000,0.150,0.850,0.000,Receptacle,0.000,148.794
 GasEquipment Internal Gains Nominal, F5 1-BED NW OUTER GAS EQUIPMENT LOADS,RESIDENTIALLIVINGGASEQUIP,THERMAL ZONE: F5 1-BED NORTH,345.60,10.0,148.794,0.431,14.879,0.000,0.150,0.850,0.000,Receptacle,0.000,148.794
 GasEquipment Internal Gains Nominal, F5 2-BED CORE NE GAS EQUIPMENT LOADS,RESIDENTIALLIVINGGASEQUIP,THERMAL ZONE: F5 2-BED CORE NE-NW,200.67,6.0,215.991,1.076,35.998,0.000,0.150,0.850,0.000,Receptacle,0.000,215.991
 GasEquipment Internal Gains Nominal, F5 2-BED CORE NW GAS EQUIPMENT LOADS,RESIDENTIALLIVINGGASEQUIP,THERMAL ZONE: F5 2-BED CORE NE-NW,200.67,6.0,215.991,1.076,35.998,0.000,0.150,0.850,0.000,Receptacle,0.000,215.991
 GasEquipment Internal Gains Nominal, F5 2-BED NE GAS EQUIPMENT LOADS,RESIDENTIALLIVINGGASEQUIP,THERMAL ZONE: F5 2-BED EAST,301.01,9.0,215.991,0.718,23.999,0.000,0.150,0.850,0.000,Receptacle,0.000,215.991
 GasEquipment Internal Gains Nominal, F5 2-BED SE CORE GAS EQUIPMENT LOADS,RESIDENTIALLIVINGGASEQUIP,THERMAL ZONE: F5 2-BED EAST,301.01,9.0,215.991,0.718,23.999,0.000,0.150,0.850,0.000,Receptacle,0.000,215.991
 GasEquipment Internal Gains Nominal, F5 2-BED SE GAS EQUIPMENT LOADS,RESIDENTIALLIVINGGASEQUIP,THERMAL ZONE: F5 2-BED EAST,301.01,9.0,215.991,0.718,23.999,0.000,0.150,0.850,0.000,Receptacle,0.000,215.991
 GasEquipment Internal Gains Nominal, F5 2-BED NW GAS EQUIPMENT LOADS,RESIDENTIALLIVINGGASEQUIP,THERMAL ZONE: F5 2-BED WEST,301.01,9.0,215.991,0.718,23.999,0.000,0.150,0.850,0.000,Receptacle,0.000,215.991
 GasEquipment Internal Gains Nominal, F5 2-BED SW CORE GAS EQUIPMENT LOADS,RESIDENTIALLIVINGGASEQUIP,THERMAL ZONE: F5 2-BED WEST,301.01,9.0,215.991,0.718,23.999,0.000,0.150,0.850,0.000,Receptacle,0.000,215.991
 GasEquipment Internal Gains Nominal, F5 2-BED SW GAS EQUIPMENT LOADS,RESIDENTIALLIVINGGASEQUIP,THERMAL ZONE: F5 2-BED WEST,301.01,9.0,215.991,0.718,23.999,0.000,0.150,0.850,0.000,Receptacle,0.000,215.991
 GasEquipment Internal Gains Nominal, F5 3-BED NE GAS EQUIPMENT LOADS,RESIDENTIALLIVINGGASEQUIP,THERMAL ZONE: F5 3-BED NE,130.99,4.0,281.988,2.153,70.497,0.000,0.150,0.850,0.000,Receptacle,0.000,281.988
 GasEquipment Internal Gains Nominal, F5 3-BED NW GAS EQUIPMENT LOADS,RESIDENTIALLIVINGGASEQUIP,THERMAL ZONE: F5 3-BED NW,130.99,4.0,281.988,2.153,70.497,0.000,0.150,0.850,0.000,Receptacle,0.000,281.988
 GasEquipment Internal Gains Nominal, F5 LAUNDRY GAS EQUIPMENT LOADS,OFFICEGASEQUIP,THERMAL ZONE: F5 CORRIDOR,256.41,13.5,39.598,0.154,2.925,0.000,0.150,0.850,0.000,Receptacle,0.000,39.598
 GasEquipment Internal Gains Nominal, F5 STUDIO SE GAS EQUIPMENT LOADS,RESIDENTIALLIVINGGASEQUIP,THERMAL ZONE: F5 STUDIO SE,50.17,2.0,107.996,2.153,53.998,0.000,0.150,0.850,0.000,Receptacle,0.000,107.996
[...]
 Component Sizing Information, Coil:Cooling:DX:SingleSpeed, COILCOOLING 21, Design Size Gross Rated Sensible Heat Ratio, 0.80087
 DX Cooling Coil Standard Rating Information, Coil:Cooling:DX:SingleSpeed, COILCOOLING 21, 3972.4, 3.52, 12.01, 13.98, 11.71
 Component Sizing Information, Coil:Heating:Fuel, COILHTG 21, Design Size Nominal Capacity [W], 2440.91061
 Component Sizing Information, Coil:Heating:Fuel, COILHTG 21, User-Specified Nominal Capacity [W], 3034.89747
 Component Sizing Information, Fan:OnOff, FAN 21, User-Specified Maximum Flow Rate [m3/s], 0.24082
 Component Sizing Information, ZoneHVAC:PackagedTerminalAirConditioner, ZNSYS F5 STUDIO SW, User-Specified Cooling Supply Air Flow Rate [m3/s], 0.22550
 Component Sizing Information, ZoneHVAC:PackagedTerminalAirConditioner, ZNSYS F5 STUDIO SW, User-Specified Heating Supply Air Flow Rate [m3/s], 0.22550
 Component Sizing Information, ZoneHVAC:PackagedTerminalAirConditioner, ZNSYS F5 STUDIO SW, User-Specified No Load Supply Air Flow Rate [m3/s], 0.22550
 Component Sizing Information, Coil:Cooling:DX:SingleSpeed, COILCOOLING 22, User-Specified Rated Air Flow Rate [m3/s], 0.22550
 Component Sizing Information, Coil:Cooling:DX:SingleSpeed, COILCOOLING 22, Design Size Gross Rated Total Cooling Capacity [W], 3224.76107
 Component Sizing Information, Coil:Cooling:DX:SingleSpeed, COILCOOLING 22, User-Specified Gross Rated Total Cooling Capacity [W], 3900.36564
 Component Sizing Information, Coil:Cooling:DX:SingleSpeed, COILCOOLING 22, Design Size Gross Rated Sensible Heat Ratio, 0.80087
 DX Cooling Coil Standard Rating Information, Coil:Cooling:DX:SingleSpeed, COILCOOLING 22, 3719.8, 3.52, 12.01, 13.98, 11.71
 Component Sizing Information, Coil:Heating:Fuel, COILHTG 22, Design Size Nominal Capacity [W], 2441.22017
 Component Sizing Information, Coil:Heating:Fuel, COILHTG 22, User-Specified Nominal Capacity [W], 3035.33707
 Component Sizing Information, Fan:OnOff, FAN 22, User-Specified Maximum Flow Rate [m3/s], 0.22550
 Component Sizing Information, AirLoopHVAC, BASESYS5 F1, Sum of Air Terminal Maximum Heating Flow Rates [m3/s], 8.06313
 Component Sizing Information, AirLoopHVAC, BASESYS5 F1, Sum of Air Terminal Minimum Heating Flow Rates [m3/s], 2.65951
 Component Sizing Information, AirLoopHVAC, BASESYS5 F1, Sum of Air Terminal Maximum Flow Rates [m3/s], 8.06313
 Component Sizing Information, AirLoopHVAC, BASESYS5 F1, Adjusted Heating Design Air Flow Rate [m3/s], 4.04851
 Component Sizing Information, AirLoopHVAC, BASESYS5 F1, Adjusted Cooling Design Air Flow Rate [m3/s], 9.38304
 Component Sizing Information, AirLoopHVAC, BASESYS5 F1, Adjusted Main Design Air Flow Rate [m3/s], 9.38304
 Component Sizing Information, AirLoopHVAC, BASESYS5 F1, User Heating Air Flow Ratio [], 0.50774
 Component Sizing Information, AirLoopHVAC, BASESYS5 F1, Calculated Heating Air Flow Ratio [], 0.43147
 Component Sizing Information, AirLoopHVAC, DOAS1, Sum of Air Terminal Maximum Heating Flow Rates [m3/s], 0.00000
 Component Sizing Information, AirLoopHVAC, DOAS1, Sum of Air Terminal Minimum Heating Flow Rates [m3/s], 0.00000
 Component Sizing Information, AirLoopHVAC, DOAS1, Sum of Air Terminal Maximum Flow Rates [m3/s], 0.76031
 Component Sizing Information, AirLoopHVAC, DOAS1, Adjusted Heating Design Air Flow Rate [m3/s], 1.29995
 Component Sizing Information, AirLoopHVAC, DOAS1, Adjusted Cooling Design Air Flow Rate [m3/s], 3.19562
 Component Sizing Information, AirLoopHVAC, DOAS1, Adjusted Main Design Air Flow Rate [m3/s], 3.19562
 Component Sizing Information, AirLoopHVAC, DOAS1, User Heating Air Flow Ratio [], 1.00000
 Component Sizing Information, AirLoopHVAC, DOAS1, Calculated Heating Air Flow Ratio [], 0.40679
!<Controller:MechanicalVentilation>,Name,Availability Schedule Name,Demand Controlled Ventilation {Yes/No},System Outdoor Air Method,Zone Maximum Outdoor Air Fraction,Number of Zones,Zone Name,DSOA Name,DSZAD Name
 Controller:MechanicalVentilation,BASESYS5 OACTRL MECH VENT CONTROLLER,BASESYS5 OACTRL SCHEDULE,Yes,ZoneSum,1.00,10,THERMAL ZONE: F1 BUSINESS CENTER,THERMAL ZONE: F1 BUSINESS CENTER DESIGN SPECIFICATION OUTDOOR AIR,THERMAL ZONE: F1 BUSINESS CENTER DESIGN SPEC ZONE AIR DIST,THERMAL ZONE: F1 CORRIDOR,THERMAL ZONE: F1 CORRIDOR DESIGN SPECIFICATION OUTDOOR AIR,THERMAL ZONE: F1 CORRIDOR DESIGN SPEC ZONE AIR DIST,THERMAL ZONE: F1 FITNESS CENTER,THERMAL ZONE: F1 FITNESS CENTER DESIGN SPECIFICATION OUTDOOR AIR,THERMAL ZONE: F1 FITNESS CENTER DESIGN SPEC ZONE AIR DIST,THERMAL ZONE: F1 LEASING OFFICE,THERMAL ZONE: F1 LEASING OFFICE DESIGN SPECIFICATION OUTDOOR AIR,THERMAL ZONE: F1 LEASING OFFICE DESIGN SPEC ZONE AIR DIST,THERMAL ZONE: F1 LOUNGE,THERMAL ZONE: F1 LOUNGE DESIGN SPECIFICATION OUTDOOR AIR,THERMAL ZONE: F1 LOUNGE DESIGN SPEC ZONE AIR DIST,THERMAL ZONE: F1 MECHANICAL ROOM,THERMAL ZONE: F1 MECHANICAL ROOM DESIGN SPECIFICATION OUTDOOR AIR,THERMAL ZONE: F1 MECHANICAL ROOM DESIGN SPEC ZONE AIR DIST,THERMAL ZONE: F1 RETAIL N-NW,THERMAL ZONE: F1 RETAIL N-NW DESIGN SPECIFICATION OUTDOOR AIR,THERMAL ZONE: F1 RETAIL N-NW DESIGN SPEC ZONE AIR DIST,THERMAL ZONE: F1 RETAIL NE,THERMAL ZONE: F1 RETAIL NE DESIGN SPECIFICATION OUTDOOR AIR,THERMAL ZONE: F1 RETAIL NE DESIGN SPEC ZONE AIR DIST,THERMAL ZONE: F1 RETAIL SE,THERMAL ZONE: F1 RETAIL SE DESIGN SPECIFICATION OUTDOOR AIR,THERMAL ZONE: F1 RETAIL SE DESIGN SPEC ZONE AIR DIST,THERMAL ZONE: F1 RETAIL SW,THERMAL ZONE: F1 RETAIL SW DESIGN SPECIFICATION OUTDOOR AIR,THERMAL ZONE: F1 RETAIL SW DESIGN SPEC ZONE AIR DIST
 Controller:MechanicalVentilation,DOAS1 OACTRL MECH VENT CONTROLLER,ALWAYS ON,No,ZoneSum,1.00,2,THERMAL ZONE: F2-4 CORRIDOR,THERMAL ZONE: F2-4 CORRIDOR DESIGN SPECIFICATION OUTDOOR AIR,THERMAL ZONE: F2-4 CORRIDOR DESIGN SPEC ZONE AIR DIST,THERMAL ZONE: F5 CORRIDOR,THERMAL ZONE: F5 CORRIDOR DESIGN SPECIFICATION OUTDOOR AIR,THERMAL ZONE: F5 CORRIDOR DESIGN SPEC ZONE AIR DIST
 Component Sizing Information, Controller:OutdoorAir, BASESYS5 OACTRL, Maximum Outdoor Air Flow Rate [m3/s], 9.38304
 Component Sizing Information, Coil:Cooling:DX:TwoSpeed, BASESYS5 COILCLG, User-Specified High Speed Rated Air Flow Rate [m3/s], 9.23960
 Component Sizing Information, Coil:Cooling:DX:TwoSpeed, BASESYS5 COILCLG, Design Size High Speed Gross Rated Total Cooling Capacity [W], 228468.26649
 Component Sizing Information, Coil:Cooling:DX:TwoSpeed, BASESYS5 COILCLG, User-Specified High Speed Gross Rated Total Cooling Capacity [W], 173235.18879
 Component Sizing Information, Coil:Cooling:DX:TwoSpeed, BASESYS5 COILCLG, Design Size High Speed Rated Sensible Heat Ratio, 0.79860
 Component Sizing Information, Coil:Cooling:DX:TwoSpeed, BASESYS5 COILCLG, Design Size Low Speed Rated Air Flow Rate [m3/s], 3.07956
 Component Sizing Information, Coil:Cooling:DX:TwoSpeed, BASESYS5 COILCLG, User-Specified Low Speed Rated Air Flow Rate [m3/s], 4.61980
 Component Sizing Information, Coil:Cooling:DX:TwoSpeed, BASESYS5 COILCLG, Design Size Low Speed Gross Rated Total Cooling Capacity [W], 57739.28842
 Component Sizing Information, Coil:Cooling:DX:TwoSpeed, BASESYS5 COILCLG, User-Specified Low Speed Gross Rated Total Cooling Capacity [W], 86617.59440
 Component Sizing Information, Coil:Cooling:DX:TwoSpeed, BASESYS5 COILCLG, Design Size Low Speed Gross Rated Sensible Heat Ratio, 0.79860
! <VAV DX Cooling Coil Standard Rating Information>, DX Coil Type, DX Coil Name, Fan Type, Fan Name, Standard Net Cooling Capacity {W}, Standard Net Cooling Capacity {Btu/h}, IEER {Btu/W-h}, COP 100% Capacity {W/W}, COP 75% Capacity {W/W}, COP 50% Capacity {W/W}, COP 25% Capacity {W/W}, EER 100% Capacity {Btu/W-h}, EER 75% Capacity {Btu/W-h}, EER 50% Capacity {Btu/W-h}, EER 25% Capacity {Btu/W-h}, Supply Air Flow 100% {kg/s}, Supply Air Flow 75% {kg/s},Supply Air Flow 50% {kg/s},Supply Air Flow 25% {kg/s}
 VAV DX Cooling Coil Standard Rating Information, Coil:Cooling:DX:TwoSpeed,BASESYS5 COILCLG,N/A,N/A,165611.46,565089.77,10.78,2.87,3.12,3.24,3.25,9.80,10.64,11.05,11.10,10.3701,8.3141,5.9447,2.6892,
 Component Sizing Information, Coil:Heating:Water, BASESYS5 COILHTG, Design Size Rated Capacity [W], 34597.29619
 Component Sizing Information, Coil:Heating:Water, BASESYS5 COILHTG, User-Specified Rated Capacity [W], 43450.42379
 Component Sizing Information, Coil:Heating:Water, BASESYS5 COILHTG, Design Size Maximum Water Flow Rate [m3/s], 9.51336E-004
 Component Sizing Information, Coil:Heating:Water, BASESYS5 COILHTG, Design Size U-Factor Times Area Value [W/K], 868.37390
Water Heating Coil Capacity Information,Coil:Heating:Water,BASESYS5 COILHTG,43538.21
 Component Sizing Information, Fan:VariableVolume, BASESYS5 FAN, User-Specified Maximum Flow Rate [m3/s], 9.23960
 Component Sizing Information, Coil:Cooling:DX:SingleSpeed, DOAS1 COILCLG, Design Size Rated Air Flow Rate [m3/s], 3.19562
 Component Sizing Information, Coil:Cooling:DX:SingleSpeed, DOAS1 COILCLG, User-Specified Rated Air Flow Rate [m3/s], 0.76031
 Component Sizing Information, Coil:Cooling:DX:SingleSpeed, DOAS1 COILCLG, Design Size Gross Rated Total Cooling Capacity [W], 15275.49919
 Component Sizing Information, Coil:Cooling:DX:SingleSpeed, DOAS1 COILCLG, User-Specified Gross Rated Total Cooling Capacity [W], 18547.96981
 Component Sizing Information, Coil:Cooling:DX:SingleSpeed, DOAS1 COILCLG, Design Size Gross Rated Sensible Heat Ratio, 0.70347
 DX Cooling Coil Standard Rating Information, Coil:Cooling:DX:SingleSpeed, DOAS1 COILCLG, 17930.5, 3.37, 11.49, 14.96, 12.85
 Component Sizing Information, Coil:Heating:Fuel, DOAS1 COILHTG, Design Size Nominal Capacity [W], 70338.93450
 Component Sizing Information, Coil:Heating:Fuel, DOAS1 COILHTG, User-Specified Nominal Capacity [W], 13767.59966
 Component Sizing Information, Fan:ConstantVolume, DOAS1 FAN, Design Size Maximum Flow Rate [m3/s], 3.19562
 Component Sizing Information, Fan:ConstantVolume, DOAS1 FAN, User-Specified Maximum Flow Rate [m3/s], 0.76031
Water Heater Information,WaterHeater:Mixed,NONRES ELEC WATER HEATER,9.1259E-002,7026.7,1.047,1.0441
Water Heater Information,WaterHeater:Mixed,NONRES GAS WATER HEATER,2.2302E-002,2146.5,1.285,0.8796
 Component Sizing Information, PlantLoop, BASEHWSYSTEM, Plant Loop Volume [m3], 0.21401
 Component Sizing Information, Boiler:HotWater, BASE BLR, Design Size Nominal Capacity [W], 163070.01030
 Component Sizing Information, Boiler:HotWater, BASE BLR, User-Specified Nominal Capacity [W], 165750.73980
 Component Sizing Information, Boiler:HotWater, BASE BLR, Design Size Design Water Flow Rate [m3/s], 1.78340E-003
 Component Sizing Information, Boiler:HotWater, BASE BLR, User-Specified Design Water Flow Rate [m3/s], 1.78440E-003
 Component Sizing Information, PlantLoop, NONRESIDENTIAL ELEC DHW SYSTEM, Maximum Loop Flow Rate [m3/s], 2.94770E-005
 Component Sizing Information, PlantLoop, NONRESIDENTIAL ELEC DHW SYSTEM, Plant Loop Volume [m3], 3.53724E-003
 Component Sizing Information, Pump:VariableSpeed, {D47996BA-9100-4F3B-9F1F-31659A365B17}, Design Flow Rate [m3/s], 2.94770E-005
 Component Sizing Information, Pump:VariableSpeed, {D47996BA-9100-4F3B-9F1F-31659A365B17}, Design Power Consumption [W], 0.00000
 Component Sizing Information, WaterHeater:Mixed, NONRES ELEC WATER HEATER, Use Side Design Flow Rate [m3/s], 2.94770E-005
 Component Sizing Information, PlantLoop, NONRESIDENTIAL GAS DHW SYSTEM, Maximum Loop Flow Rate [m3/s], 7.20381E-006
 Component Sizing Information, PlantLoop, NONRESIDENTIAL GAS DHW SYSTEM, Plant Loop Volume [m3], 8.64457E-004
 Component Sizing Information, Pump:VariableSpeed, {A061CED2-E64B-4C1F-8403-DE21CB61B277}, Design Flow Rate [m3/s], 7.20381E-006
 Component Sizing Information, Pump:VariableSpeed, {A061CED2-E64B-4C1F-8403-DE21CB61B277}, Design Power Consumption [W], 0.00000
 Component Sizing Information, WaterHeater:Mixed, NONRES GAS WATER HEATER, Use Side Design Flow Rate [m3/s], 7.20381E-006
! <Environment>,Environment Name,Environment Type, Start Date, End Date, Start DayOfWeek, Duration {#days}, Source:Start DayOfWeek,  Use Daylight Saving, Use Holidays, Apply Weekend Holiday Rule,  Use Rain Values, Use Snow Values
! <Environment:Special Days>, Special Day Name, Special Day Type, Source, Start Date, Duration {#days}
! <Environment:Daylight Saving>, Daylight Saving Indicator, Source, Start Date, End Date
! <Environment:WarmupDays>, NumberofWarmupDays
Environment,RIVERSIDE_722869_CZ2010,WeatherFileRunPeriod,01/01/2009,12/31/2009,Thursday,365,Use RunPeriod Specified Day,No,No,Yes,Yes,Yes
Environment:Daylight Saving,No,RunPeriod Object
Environment:Special Days,CHRISTMAS DAY,Holiday,InputFile,12/25,  1
Environment:Special Days,COLUMBUS DAY,Holiday,InputFile,10/12,  1
Environment:Special Days,INDEPENDENCE DAY,Holiday,InputFile,07/06,  1
Environment:Special Days,LABOR DAY,Holiday,InputFile,09/07,  1
Environment:Special Days,MARTIN LUTHER KING DAY,Holiday,InputFile,01/19,  1
Environment:Special Days,MEMORIAL DAY,Holiday,InputFile,05/25,  1
Environment:Special Days,NEW YEAR'S DAY,Holiday,InputFile,01/01,  1
Environment:Special Days,PRESIDENTS DAY,Holiday,InputFile,02/16,  1
Environment:Special Days,THANKSGIVING DAY,Holiday,InputFile,11/26,  1
Environment:Special Days,VETERANS DAY,Holiday,InputFile,11/11,  1
Environment:WarmupDays, 14
! <Warmup Convergence Information>,Zone Name,Environment Type/Name,Average Warmup Temperature Difference {deltaC},Std Dev Warmup Temperature Difference {deltaC},Max Temperature Pass/Fail Convergence,Min Temperature Pass/Fail Convergence,Average Warmup Load Difference {W},Std Dev Warmup Load Difference {W},Heating Load Pass/Fail Convergence,Cooling Load Pass/Fail Convergence
 Warmup Convergence Information,THERMAL ZONE: F1 BUSINESS CENTER,RunPeriod: RIVERSIDE_722869_CZ2010,0.1426573045,0.4156276943,Pass,Pass,0.7141354656,4.7183455140,Pass,Pass
 Warmup Convergence Information,THERMAL ZONE: F1 CORRIDOR,RunPeriod: RIVERSIDE_722869_CZ2010,0.1087881189,0.4229714997,Pass,Pass,0.3307805568,1.0840687034,Pass,Pass
 Warmup Convergence Information,THERMAL ZONE: F1 FITNESS CENTER,RunPeriod: RIVERSIDE_722869_CZ2010,0.1156973243,0.4117251340,Pass,Pass,0.1383215277,0.3437310176,Pass,Pass
 Warmup Convergence Information,THERMAL ZONE: F1 LEASING OFFICE,RunPeriod: RIVERSIDE_722869_CZ2010,0.1308564115,0.4361349969,Pass,Pass,0.3685389313,1.6315549943,Pass,Pass
 Warmup Convergence Information,THERMAL ZONE: F1 LOUNGE,RunPeriod: RIVERSIDE_722869_CZ2010,0.1643398288,0.4094234042,Pass,Pass,0.2652080414,1.1152520631,Pass,Pass
 Warmup Convergence Information,THERMAL ZONE: F1 MECHANICAL ROOM,RunPeriod: RIVERSIDE_722869_CZ2010,0.1352490629,0.3276564950,Pass,Pass,0.1028438302,0.2596782110,Pass,Pass
 Warmup Convergence Information,THERMAL ZONE: F1 RETAIL N-NW,RunPeriod: RIVERSIDE_722869_CZ2010,0.1105984985,0.3857641446,Pass,Pass,0.3063274269,1.3552663341,Pass,Pass
 Warmup Convergence Information,THERMAL ZONE: F1 RETAIL NE,RunPeriod: RIVERSIDE_722869_CZ2010,0.1118283658,0.3962148102,Pass,Pass,0.4989936153,3.4550613093,Pass,Pass
 Warmup Convergence Information,THERMAL ZONE: F1 RETAIL SE,RunPeriod: RIVERSIDE_722869_CZ2010,0.1210731421,0.4149219406,Pass,Pass,2.0100395395,13.5855974852,Pass,Pass
 Warmup Convergence Information,THERMAL ZONE: F1 RETAIL SW,RunPeriod: RIVERSIDE_722869_CZ2010,0.1187037873,0.4120820164,Pass,Pass,0.3274160812,1.3295080004,Pass,Pass
 Warmup Convergence Information,THERMAL ZONE: F2-4 1-BED CORE EAST,RunPeriod: RIVERSIDE_722869_CZ2010,0.1210929899,0.2197463024,Pass,Pass,7.3289669087E-002,0.2509033717,Pass,Pass
 Warmup Convergence Information,THERMAL ZONE: F2-4 1-BED CORE N,RunPeriod: RIVERSIDE_722869_CZ2010,0.1210594198,0.1356183145,Pass,Pass,5.9972164493E-002,0.2322972897,Pass,Pass
 Warmup Convergence Information,THERMAL ZONE: F2-4 1-BED CORE WEST,RunPeriod: RIVERSIDE_722869_CZ2010,0.1173183083,0.2227058486,Pass,Pass,0.1174128570,0.5915860270,Pass,Pass
 Warmup Convergence Information,THERMAL ZONE: F2-4 1-BED NORTH,RunPeriod: RIVERSIDE_722869_CZ2010,0.1170924147,0.2033302800,Pass,Pass,8.7101129194E-002,0.3276728245,Pass,Pass
 Warmup Convergence Information,THERMAL ZONE: F2-4 2-BED CORE NE-NW,RunPeriod: RIVERSIDE_722869_CZ2010,0.1025023334,9.4782937042E-002,Pass,Pass,0.0000000000,0.0000000000,Pass,Pass
 Warmup Convergence Information,THERMAL ZONE: F2-4 2-BED EAST,RunPeriod: RIVERSIDE_722869_CZ2010,0.1345850815,0.2465076240,Pass,Pass,6.2488521934E-002,0.2066278530,Pass,Pass
 Warmup Convergence Information,THERMAL ZONE: F2-4 2-BED WEST,RunPeriod: RIVERSIDE_722869_CZ2010,0.1368681277,0.2375629089,Pass,Pass,7.6436526012E-002,0.3058891721,Pass,Pass
 Warmup Convergence Information,THERMAL ZONE: F2-4 3-BED NE,RunPeriod: RIVERSIDE_722869_CZ2010,0.1348506939,0.3160127523,Pass,Pass,0.1431357495,0.8044303848,Pass,Pass
 Warmup Convergence Information,THERMAL ZONE: F2-4 3-BED NW,RunPeriod: RIVERSIDE_722869_CZ2010,0.1383065482,0.3093213019,Pass,Pass,7.0447240160E-002,0.2167603367,Pass,Pass
 Warmup Convergence Information,THERMAL ZONE: F2-4 CORRIDOR,RunPeriod: RIVERSIDE_722869_CZ2010,5.3631459591E-002,5.2760871521E-002,Pass,Pass,0.1251397349,0.5474078631,Pass,Pass
 Warmup Convergence Information,THERMAL ZONE: F2-4 STUDIO SE,RunPeriod: RIVERSIDE_722869_CZ2010,0.1802945817,0.3576641700,Pass,Pass,1.1276380215,10.6629201088,Pass,Pass
 Warmup Convergence Information,THERMAL ZONE: F2-4 STUDIO SW,RunPeriod: RIVERSIDE_722869_CZ2010,0.1818657096,0.3591304445,Pass,Pass,3.6049654219E-002,0.1149954653,Pass,Pass
 Warmup Convergence Information,THERMAL ZONE: F5 1-BED CORE EAST,RunPeriod: RIVERSIDE_722869_CZ2010,0.1593428786,0.3582984651,Pass,Pass,6.3555484649E-002,0.1784820421,Pass,Pass
 Warmup Convergence Information,THERMAL ZONE: F5 1-BED CORE N,RunPeriod: RIVERSIDE_722869_CZ2010,0.1586995476,0.2996080749,Pass,Pass,4.2002892900E-002,0.1497518959,Pass,Pass
 Warmup Convergence Information,THERMAL ZONE: F5 1-BED CORE WEST,RunPeriod: RIVERSIDE_722869_CZ2010,0.1527415262,0.3582299888,Pass,Pass,8.5672762842E-002,0.2752073317,Pass,Pass
 Warmup Convergence Information,THERMAL ZONE: F5 1-BED NORTH,RunPeriod: RIVERSIDE_722869_CZ2010,0.1566072133,0.3561485781,Pass,Pass,1.2214293262,11.2468616914,Pass,Pass
 Warmup Convergence Information,THERMAL ZONE: F5 2-BED CORE NE-NW,RunPeriod: RIVERSIDE_722869_CZ2010,0.1345349305,0.2204514532,Pass,Pass,0.1693135632,1.2048303520,Pass,Pass
 Warmup Convergence Information,THERMAL ZONE: F5 2-BED EAST,RunPeriod: RIVERSIDE_722869_CZ2010,0.1646073489,0.3594908708,Pass,Pass,0.1217877451,0.4219652378,Pass,Pass
 Warmup Convergence Information,THERMAL ZONE: F5 2-BED WEST,RunPeriod: RIVERSIDE_722869_CZ2010,0.1707391159,0.3591243910,Pass,Pass,0.1976497432,1.0852767882,Pass,Pass
 Warmup Convergence Information,THERMAL ZONE: F5 3-BED NE,RunPeriod: RIVERSIDE_722869_CZ2010,0.1483776152,0.3640759100,Pass,Pass,9.7488752097E-002,0.2658228426,Pass,Pass
 Warmup Convergence Information,THERMAL ZONE: F5 3-BED NW,RunPeriod: RIVERSIDE_722869_CZ2010,0.1544888220,0.3642391786,Pass,Pass,8.3339194988E-002,0.1937071743,Pass,Pass
 Warmup Convergence Information,THERMAL ZONE: F5 CORRIDOR,RunPeriod: RIVERSIDE_722869_CZ2010,8.2194631845E-002,5.6924207636E-002,Pass,Pass,0.1066702394,0.3545908266,Pass,Pass
 Warmup Convergence Information,THERMAL ZONE: F5 STUDIO SE,RunPeriod: RIVERSIDE_722869_CZ2010,0.1886142963,0.3851233656,Pass,Pass,6.7483939838E-002,0.1946224838,Pass,Pass
 Warmup Convergence Information,THERMAL ZONE: F5 STUDIO SW,RunPeriod: RIVERSIDE_722869_CZ2010,0.1849137816,0.3857354573,Pass,Pass,7.9205824427E-002,0.2769587197,Pass,Pass
 Warmup Convergence Information,THERMAL ZONE: PARKING GARAGE,RunPeriod: RIVERSIDE_722869_CZ2010,0.1613765381,0.1169703320,Pass,Pass,0.0000000000,0.0000000000,Pass,Pass
! <Program Control Information:Threads/Parallel Sims>, Threading Supported,Maximum Number of Threads, Env Set Threads (OMP_NUM_THREADS), EP Env Set Threads (EP_OMP_NUM_THREADS), IDF Set Threads, Number of Threads Used (Interior Radiant Exchange), Number Nominal Surfaces, Number Parallel Sims
Program Control:Threads/Parallel Sims, No,1, N/A, N/A, N/A, N/A, N/A, N/A
End of Data
