Program Version,EnergyPlus, Version 9.0.1-bb7ca4f0da, YMD=2019.12.17 17:27
! <Version>, Version ID
 Version, 9.0
! <Timesteps per Hour>, #TimeSteps, Minutes per TimeStep {minutes}
 Timesteps per Hour,  4, 15
! <System Convergence Limits>, Minimum System TimeStep {minutes}, Max HVAC Iterations, Minimum Plant Iterations, Maximum Plant Iterations
 System Convergence Limits, 1, 20, 2, 8
! <Simulation Control>, Do Zone Sizing, Do System Sizing, Do Plant Sizing, Do Design Days, Do Weather Simulation, Do HVAC Sizing Simulation
 Simulation Control, Yes, Yes, Yes, No, Yes, No
! <Output Reporting Tolerances>, Tolerance for Time Heating Setpoint Not Met, Tolerance for Zone Cooling Setpoint Not Met Time
 Output Reporting Tolerances, 0.556, 0.556, 
! <Site:GroundTemperature:BuildingSurface>,Jan{C},Feb{C},Mar{C},Apr{C},May{C},Jun{C},Jul{C},Aug{C},Sep{C},Oct{C},Nov{C},Dec{C}
 Site:GroundTemperature:BuildingSurface,  18.00,  18.00,  18.00,  18.00,  18.00,  18.00,  18.00,  18.00,  18.00,  18.00,  18.00,  18.00
! <Site:GroundTemperature:FCfactorMethod>,Jan{C},Feb{C},Mar{C},Apr{C},May{C},Jun{C},Jul{C},Aug{C},Sep{C},Oct{C},Nov{C},Dec{C}
 Site:GroundTemperature:FCfactorMethod,  13.23,  14.78,  16.58,  17.91,  19.78,  20.17,  19.54,  18.02,  16.03,  14.19,  12.89,  12.54
! <Site:GroundTemperature:Shallow>,Jan{C},Feb{C},Mar{C},Apr{C},May{C},Jun{C},Jul{C},Aug{C},Sep{C},Oct{C},Nov{C},Dec{C}
 Site:GroundTemperature:Shallow,  13.00,  13.00,  13.00,  13.00,  13.00,  13.00,  13.00,  13.00,  13.00,  13.00,  13.00,  13.00
! <Site:GroundTemperature:Deep>,Jan{C},Feb{C},Mar{C},Apr{C},May{C},Jun{C},Jul{C},Aug{C},Sep{C},Oct{C},Nov{C},Dec{C}
 Site:GroundTemperature:Deep,  16.00,  16.00,  16.00,  16.00,  16.00,  16.00,  16.00,  16.00,  16.00,  16.00,  16.00,  16.00
! <Site:GroundReflectance>,Jan{dimensionless},Feb{dimensionless},Mar{dimensionless},Apr{dimensionless},May{dimensionless},Jun{dimensionless},Jul{dimensionless},Aug{dimensionless},Sep{dimensionless},Oct{dimensionless},Nov{dimensionless},Dec{dimensionless}
 Site:GroundReflectance,  0.20,  0.20,  0.20,  0.20,  0.20,  0.20,  0.20,  0.20,  0.20,  0.20,  0.20,  0.20
! <Site:GroundReflectance:SnowModifier>, Normal, Daylighting {dimensionless}
 Site:GroundReflectance:SnowModifier,   1.000,   1.000
! <Site:GroundReflectance:Snow>,Jan{dimensionless},Feb{dimensionless},Mar{dimensionless},Apr{dimensionless},May{dimensionless},Jun{dimensionless},Jul{dimensionless},Aug{dimensionless},Sep{dimensionless},Oct{dimensionless},Nov{dimensionless},Dec{dimensionless}
 Site:GroundReflectance:Snow,  0.20,  0.20,  0.20,  0.20,  0.20,  0.20,  0.20,  0.20,  0.20,  0.20,  0.20,  0.20
! <Site:GroundReflectance:Snow:Daylighting>,Jan{dimensionless},Feb{dimensionless},Mar{dimensionless},Apr{dimensionless},May{dimensionless},Jun{dimensionless},Jul{dimensionless},Aug{dimensionless},Sep{dimensionless},Oct{dimensionless},Nov{dimensionless},Dec{dimensionless}
 Site:GroundReflectance:Snow:Daylighting,  0.20,  0.20,  0.20,  0.20,  0.20,  0.20,  0.20,  0.20,  0.20,  0.20,  0.20,  0.20
! <Environment:Weather Station>,Wind Sensor Height Above Ground {m},Wind Speed Profile Exponent {},Wind Speed Profile Boundary Layer Thickness {m},Air Temperature Sensor Height Above Ground {m},Wind Speed Modifier Coefficient-Internal,Temperature Modifier Coefficient-Internal
Environment:Weather Station,10.000,0.140,270.000,1.500,1.586,9.750E-003
! <Site:Location>, Location Name, Latitude {N+/S- Deg}, Longitude {E+/W- Deg},  Time Zone Number {GMT+/-}, Elevation {m},  Standard Pressure at Elevation {Pa}, Standard RhoAir at Elevation
Site:Location,TORRANCE-MUNI-AP - USA Custom-722955 WMO#=722955,33.80,-118.33,-8.00,27.00,101001,1.2005
! <Site Water Mains Temperature Information>,Calculation Method{},Water Mains Temperature Schedule Name{},Annual Average Outdoor Air Temperature{C},Maximum Difference In Monthly Average Outdoor Air Temperatures{deltaC},Fixed Default Water Mains Temperature{C}
Site Water Mains Temperature Information,Schedule,WATERMAINCZ06,0.00,0.00,NA
! <Building Information>, Building Name,North Axis {deg},Terrain,  Loads Convergence Tolerance Value,Temperature Convergence Tolerance Value,  Solar Distribution,Maximum Number of Warmup Days,Minimum Number of Warmup Days
 Building Information,Building 1,0.000,Suburbs,4.00000E-002,0.40000,FullExterior,50,6
! <Inside Convection Algorithm>, Algorithm {Simple | TARP | CeilingDiffuser | AdaptiveConvectionAlgorithm}
Inside Convection Algorithm,TARP
! <Outside Convection Algorithm>, Algorithm {SimpleCombined | TARP | MoWitt | DOE-2 | AdaptiveConvectionAlgorithm}
Outside Convection Algorithm,DOE-2
! <Sky Radiance Distribution>, Value {Anisotropic}
Sky Radiance Distribution,Anisotropic
! <Zone Air Solution Algorithm>, Value {ThirdOrderBackwardDifference | AnalyticalSolution | EulerMethod}
 Zone Air Solution Algorithm, ThirdOrderBackwardDifference
! <Zone Air Carbon Dioxide Balance Simulation>, Simulation {Yes/No}, Carbon Dioxide Concentration
 Zone Air Carbon Dioxide Balance Simulation, No,N/A
! <Zone Air Generic Contaminant Balance Simulation>, Simulation {Yes/No}, Generic Contaminant Concentration
 Zone Air Generic Contaminant Balance Simulation, No,N/A
! <Zone Air Mass Flow Balance Simulation>, Enforce Mass Balance, Adjust Zone Mixing, Adjust Zone Infiltration {AddInfiltration | AdjustInfiltration | None}, Infiltration Zones {MixingSourceZonesOnly | AllZones}
 Zone Air Mass Flow Balance Simulation, No,N/A,N/A,N/A
! <HVACSystemRootFindingAlgorithm>, Value {RegulaFalsi | Bisection | BisectionThenRegulaFalsi | RegulaFalsiThenBisection}
 HVACSystemRootFindingAlgorithm, RegulaFalsi
! <Environment:Site Atmospheric Variation>,Wind Speed Profile Exponent {},Wind Speed Profile Boundary Layer Thickness {m},Air Temperature Gradient Coefficient {K/m}
Environment:Site Atmospheric Variation,0.220,370.000,6.500000E-003
! <Surface Geometry>,Starting Corner,Vertex Input Direction,Coordinate System,Daylight Reference Point Coordinate System,Rectangular (Simple) Surface Coordinate System
 Surface Geometry,UpperLeftCorner,Counterclockwise,RelativeCoordinateSystem,RelativeCoordinateSystem,RelativeToZoneOrigin
! <Surface Heat Transfer Algorithm>, Value {CTF - ConductionTransferFunction | EMPD - MoisturePenetrationDepthConductionTransferFunction | CondFD - ConductionFiniteDifference | HAMT - CombinedHeatAndMoistureFiniteElement} - Description,Inside Surface Max Temperature Limit{C}, Surface Convection Coefficient Lower Limit {W/m2-K}, Surface Convection Coefficient Upper Limit {W/m2-K}
Surface Heat Transfer Algorithm, CTF - ConductionTransferFunction,200,0.10,1000.0
! <Shading Summary>, Number of Fixed Detached Shades, Number of Building Detached Shades, Number of Attached Shades
 Shading Summary,0,0,0
! <Zone Summary>, Number of Zones, Number of Zone Surfaces, Number of SubSurfaces
 Zone Summary,35,677,92
! <Zone Information>,Zone Name,North Axis {deg},Origin X-Coordinate {m},Origin Y-Coordinate {m},Origin Z-Coordinate {m},Centroid X-Coordinate {m},Centroid Y-Coordinate {m},Centroid Z-Coordinate {m},Type,Zone Multiplier,Zone List Multiplier,Minimum X {m},Maximum X {m},Minimum Y {m},Maximum Y {m},Minimum Z {m},Maximum Z {m},Ceiling Height {m},Volume {m3},Zone Inside Convection Algorithm {Simple-Detailed-CeilingDiffuser-TrombeWall},Zone Outside Convection Algorithm {Simple-Detailed-Tarp-MoWitt-DOE-2-BLAST}, Floor Area {m2},Exterior Gross Wall Area {m2},Exterior Net Wall Area {m2},Exterior Window Area {m2}, Number of Surfaces, Number of SubSurfaces, Number of Shading SubSurfaces,  Part of Total Building Area
 Zone Information, THERMAL ZONE: F1 BUSINESS CENTER,0.0,0.00,0.00,0.00,40.23,17.31,1.13,1,1,1,36.58,43.89,14.63,19.20,0.00,3.05,3.05,101.94,TARP,DOE-2,33.45,13.94,12.54,1.39,6,1,0,Yes
 Zone Information, THERMAL ZONE: F1 CORRIDOR,0.0,0.00,0.00,0.00,28.97,29.67,1.10,1,1,1,4.57,45.72,14.63,47.24,0.00,3.05,3.05,543.68,TARP,DOE-2,178.37,80.83,72.74,8.08,33,4,0,Yes
 Zone Information, THERMAL ZONE: F1 FITNESS CENTER,0.0,0.00,0.00,0.00,50.29,24.38,0.87,1,1,1,45.72,54.86,19.81,28.96,0.00,3.05,3.05,254.85,TARP,DOE-2,83.61,27.87,25.08,2.79,7,1,0,Yes
 Zone Information, THERMAL ZONE: F1 LEASING OFFICE,0.0,0.00,0.00,0.00,2.29,25.45,1.05,1,1,1,0.00,4.57,21.95,28.96,0.00,3.05,3.05,97.69,TARP,DOE-2,32.05,21.37,19.23,2.14,6,1,0,Yes
 Zone Information, THERMAL ZONE: F1 LOUNGE,0.0,0.00,0.00,0.00,45.47,19.55,0.93,1,1,1,36.58,54.86,14.63,23.77,0.00,3.05,3.05,297.33,TARP,DOE-2,97.55,29.73,26.76,2.97,9,2,0,Yes
 Zone Information, THERMAL ZONE: F1 MECHANICAL ROOM,0.0,0.00,0.00,0.00,8.69,24.38,1.01,1,1,1,4.57,12.80,21.95,26.82,0.00,3.05,3.05,122.33,TARP,DOE-2,40.13,0.00,0.00,0.00,6,0,0,Yes
 Zone Information, THERMAL ZONE: F1 RETAIL N-NW,0.0,0.00,0.00,0.00,15.76,37.66,0.54,1,1,1,0.00,30.78,28.96,47.24,0.00,3.05,3.05,1694.76,TARP,DOE-2,556.02,149.57,134.62,14.96,21,5,0,Yes
 Zone Information, THERMAL ZONE: F1 RETAIL NE,0.0,0.00,0.00,0.00,43.89,38.10,0.58,1,1,1,32.92,54.86,28.96,47.24,0.00,3.05,3.05,1223.29,TARP,DOE-2,401.34,122.63,110.37,12.26,12,4,0,Yes
 Zone Information, THERMAL ZONE: F1 RETAIL SE,0.0,0.00,0.00,0.00,45.72,7.32,0.65,1,1,1,36.58,54.86,0.00,14.63,0.00,3.05,3.05,815.53,TARP,DOE-2,267.56,144.93,130.44,14.49,9,5,0,Yes
 Zone Information, THERMAL ZONE: F1 RETAIL SW,0.0,0.00,0.00,0.00,9.51,11.72,0.59,1,1,1,0.00,18.29,0.00,23.77,0.00,3.05,3.05,1253.87,TARP,DOE-2,411.37,195.10,175.59,19.51,14,7,0,Yes
 Zone Information, THERMAL ZONE: F2-4 1-BED CORE EAST,0.0,0.00,0.00,0.00,40.23,14.63,3.87,1,3,1,36.58,43.89,5.49,23.77,3.05,6.10,3.05,407.76,TARP,DOE-2,133.78,55.74,41.79,13.95,11,2,0,Yes
 Zone Information, THERMAL ZONE: F2-4 1-BED CORE N,0.0,0.00,0.00,0.00,25.60,31.39,3.96,1,3,1,21.95,29.26,26.82,35.97,3.05,6.10,3.05,203.88,TARP,DOE-2,66.89,22.30,16.72,5.57,9,1,0,Yes
 Zone Information, THERMAL ZONE: F2-4 1-BED CORE WEST,0.0,0.00,0.00,0.00,14.47,14.87,3.87,1,3,1,10.97,18.29,5.49,23.77,3.05,6.10,3.05,407.76,TARP,DOE-2,133.78,55.74,41.79,13.95,11,2,0,Yes
 Zone Information, THERMAL ZONE: F2-4 1-BED NORTH,0.0,0.00,0.00,0.00,27.43,42.52,3.73,1,3,1,9.14,45.72,37.80,47.24,3.05,6.10,3.05,1053.39,TARP,DOE-2,345.60,111.48,83.61,27.87,22,5,0,Yes
 Zone Information, THERMAL ZONE: F2-4 2-BED CORE NE-NW,0.0,0.00,0.00,0.00,27.43,31.39,3.89,1,3,1,10.97,43.89,26.82,35.97,3.05,6.10,3.05,611.64,TARP,DOE-2,200.67,22.30,16.79,5.50,19,2,0,Yes
 Zone Information, THERMAL ZONE: F2-4 2-BED EAST,0.0,0.00,0.00,0.00,50.29,16.46,3.75,1,3,1,45.72,54.86,0.00,32.92,3.05,6.10,3.05,917.47,TARP,DOE-2,301.01,128.21,96.09,32.12,17,4,0,Yes
 Zone Information, THERMAL ZONE: F2-4 2-BED WEST,0.0,0.00,0.00,0.00,4.57,16.46,3.75,1,3,1,0.00,9.14,0.00,32.92,3.05,6.10,3.05,917.47,TARP,DOE-2,301.01,128.21,96.09,32.12,18,4,0,Yes
 Zone Information, THERMAL ZONE: F2-4 3-BED NE,0.0,0.00,0.00,0.00,50.29,40.08,3.84,1,3,1,45.72,54.86,32.92,47.24,3.05,6.10,3.05,399.27,TARP,DOE-2,130.99,71.54,53.60,17.93,7,2,0,Yes
 Zone Information, THERMAL ZONE: F2-4 3-BED NW,0.0,0.00,0.00,0.00,4.57,40.08,3.84,1,3,1,0.00,9.14,32.92,47.24,3.05,6.10,3.05,399.27,TARP,DOE-2,130.99,71.54,53.60,17.93,7,2,0,Yes
 Zone Information, THERMAL ZONE: F2-4 CORRIDOR,0.0,0.00,0.00,0.00,27.73,26.69,4.18,1,3,1,9.14,45.72,5.49,37.80,3.05,6.10,3.05,781.54,TARP,DOE-2,256.41,29.73,22.38,7.35,62,3,0,Yes
 Zone Information, THERMAL ZONE: F2-4 STUDIO SE,0.0,0.00,0.00,0.00,41.15,2.74,4.02,1,3,1,36.58,45.72,0.00,5.49,3.05,6.10,3.05,152.91,TARP,DOE-2,50.17,44.59,33.45,11.15,6,2,0,Yes
 Zone Information, THERMAL ZONE: F2-4 STUDIO SW,0.0,0.00,0.00,0.00,13.72,2.74,4.02,1,3,1,9.14,18.29,0.00,5.49,3.05,6.10,3.05,152.91,TARP,DOE-2,50.17,44.59,33.45,11.15,6,2,0,Yes
 Zone Information, THERMAL ZONE: F5 1-BED CORE EAST,0.0,0.00,0.00,0.00,40.23,14.63,13.72,1,1,1,36.58,43.89,5.49,23.77,12.19,15.24,3.05,407.76,TARP,DOE-2,133.78,55.74,41.79,13.95,11,2,0,Yes
 Zone Information, THERMAL ZONE: F5 1-BED CORE N,0.0,0.00,0.00,0.00,25.60,31.39,13.72,1,1,1,21.95,29.26,26.82,35.97,12.19,15.24,3.05,203.88,TARP,DOE-2,66.89,22.30,16.72,5.57,9,1,0,Yes
 Zone Information, THERMAL ZONE: F5 1-BED CORE WEST,0.0,0.00,0.00,0.00,14.63,14.63,13.72,1,1,1,10.97,18.29,5.49,23.77,12.19,15.24,3.05,407.76,TARP,DOE-2,133.78,55.74,41.79,13.95,11,2,0,Yes
 Zone Information, THERMAL ZONE: F5 1-BED NORTH,0.0,0.00,0.00,0.00,27.43,42.52,13.72,1,1,1,9.14,45.72,37.80,47.24,12.19,15.24,3.05,1053.39,TARP,DOE-2,345.60,111.48,83.61,27.87,22,5,0,Yes
 Zone Information, THERMAL ZONE: F5 2-BED CORE NE-NW,0.0,0.00,0.00,0.00,27.43,31.39,13.72,1,1,1,10.97,43.89,26.82,35.97,12.19,15.24,3.05,611.64,TARP,DOE-2,200.67,22.30,16.79,5.50,17,2,0,Yes
 Zone Information, THERMAL ZONE: F5 2-BED EAST,0.0,0.00,0.00,0.00,50.29,16.46,13.72,1,1,1,45.72,54.86,0.00,32.92,12.19,15.24,3.05,917.47,TARP,DOE-2,301.01,128.21,96.09,32.12,15,4,0,Yes
 Zone Information, THERMAL ZONE: F5 2-BED WEST,0.0,0.00,0.00,0.00,4.57,16.46,13.72,1,1,1,0.00,9.14,0.00,32.92,12.19,15.24,3.05,917.47,TARP,DOE-2,301.01,128.21,96.09,32.12,15,4,0,Yes
 Zone Information, THERMAL ZONE: F5 3-BED NE,0.0,0.00,0.00,0.00,50.29,40.08,13.72,1,1,1,45.72,54.86,32.92,47.24,12.19,15.24,3.05,399.27,TARP,DOE-2,130.99,71.54,53.60,17.93,7,2,0,Yes
 Zone Information, THERMAL ZONE: F5 3-BED NW,0.0,0.00,0.00,0.00,4.57,40.08,13.72,1,1,1,0.00,9.14,32.92,47.24,12.19,15.24,3.05,399.27,TARP,DOE-2,130.99,71.54,53.60,17.93,7,2,0,Yes
 Zone Information, THERMAL ZONE: F5 CORRIDOR,0.0,0.00,0.00,0.00,28.00,26.22,13.72,1,1,1,9.14,45.72,5.49,37.80,12.19,15.24,3.05,781.54,TARP,DOE-2,256.41,29.73,22.38,7.35,55,3,0,Yes
 Zone Information, THERMAL ZONE: F5 STUDIO SE,0.0,0.00,0.00,0.00,41.15,2.74,13.72,1,1,1,36.58,45.72,0.00,5.49,12.19,15.24,3.05,152.91,TARP,DOE-2,50.17,44.59,33.45,11.15,7,2,0,Yes
 Zone Information, THERMAL ZONE: F5 STUDIO SW,0.0,0.00,0.00,0.00,13.72,2.74,13.72,1,1,1,9.14,18.29,0.00,5.49,12.19,15.24,3.05,152.91,TARP,DOE-2,50.17,44.59,33.45,11.15,7,2,0,Yes
 Zone Information, THERMAL ZONE: PARKING GARAGE,0.0,0.00,0.00,0.00,27.54,23.62,-3.05,1,1,1,0.00,54.86,0.00,47.24,-6.10,0.00,6.10,15800.80,TARP,DOE-2,2591.99,0.00,0.00,0.00,29,0,0,Yes
! <Zone Internal Gains Nominal>,Zone Name, Floor Area {m2},# Occupants,Area per Occupant {m2/person},Occupant per Area {person/m2},Interior Lighting {W/m2},Electric Load {W/m2},Gas Load {W/m2},Other Load {W/m2},Hot Water Eq {W/m2},Steam Equipment {W/m2},Sum Loads per Area {W/m2},Outdoor Controlled Baseboard Heat
 Zone Internal Gains Nominal, THERMAL ZONE: F1 BUSINESS CENTER,33.45,12.0,2.787,0.359,9.149,10.764,0.000,0.000,0.000,0.000,19.913,No
 Zone Internal Gains Nominal, THERMAL ZONE: F1 CORRIDOR,178.37,9.3,19.103,5.235E-002,6.172,1.261,0.000,0.000,0.000,0.000,7.434,No
 Zone Internal Gains Nominal, THERMAL ZONE: F1 FITNESS CENTER,83.61,9.0,9.290,0.108,5.382,5.382,0.000,0.000,0.000,0.000,10.764,No
 Zone Internal Gains Nominal, THERMAL ZONE: F1 LEASING OFFICE,32.05,1.7,18.581,5.382E-002,6.997,16.146,0.000,0.000,0.000,0.000,23.142,No
 Zone Internal Gains Nominal, THERMAL ZONE: F1 LOUNGE,97.55,35.0,2.787,0.359,6.997,10.764,0.000,0.000,0.000,0.000,17.760,No
 Zone Internal Gains Nominal, THERMAL ZONE: F1 MECHANICAL ROOM,40.13,0.6,61.935,1.615E-002,4.306,32.292,0.000,0.000,0.000,0.000,36.597,No
 Zone Internal Gains Nominal, THERMAL ZONE: F1 RETAIL N-NW,556.02,49.9,11.146,8.972E-002,10.764,10.764,0.000,0.000,0.000,0.000,21.528,No
 Zone Internal Gains Nominal, THERMAL ZONE: F1 RETAIL NE,401.34,36.0,11.146,8.972E-002,10.764,10.764,0.000,0.000,0.000,0.000,21.528,No
 Zone Internal Gains Nominal, THERMAL ZONE: F1 RETAIL SE,267.56,24.0,11.146,8.972E-002,10.764,10.764,0.000,0.000,0.000,0.000,21.528,No
 Zone Internal Gains Nominal, THERMAL ZONE: F1 RETAIL SW,411.37,36.9,11.146,8.972E-002,10.764,10.764,0.000,0.000,0.000,0.000,21.528,No
 Zone Internal Gains Nominal, THERMAL ZONE: F2-4 1-BED CORE EAST,133.78,4.0,33.445,2.990E-002,5.382,5.382,2.153,0.000,0.000,0.000,12.917,No
 Zone Internal Gains Nominal, THERMAL ZONE: F2-4 1-BED CORE N,66.89,2.0,33.445,2.990E-002,5.382,5.382,2.153,0.000,0.000,0.000,12.917,No
 Zone Internal Gains Nominal, THERMAL ZONE: F2-4 1-BED CORE WEST,133.78,4.0,33.445,2.990E-002,5.382,5.382,2.153,0.000,0.000,0.000,12.917,No
 Zone Internal Gains Nominal, THERMAL ZONE: F2-4 1-BED NORTH,345.60,10.0,34.560,2.894E-002,5.382,5.382,2.153,0.000,0.000,0.000,12.917,No
 Zone Internal Gains Nominal, THERMAL ZONE: F2-4 2-BED CORE NE-NW,200.67,6.0,33.445,2.990E-002,5.382,5.382,2.153,0.000,0.000,0.000,12.917,No
 Zone Internal Gains Nominal, THERMAL ZONE: F2-4 2-BED EAST,301.01,9.0,33.445,2.990E-002,5.382,5.382,2.153,0.000,0.000,0.000,12.917,No
 Zone Internal Gains Nominal, THERMAL ZONE: F2-4 2-BED WEST,301.01,9.0,33.445,2.990E-002,5.382,5.382,2.153,0.000,0.000,0.000,12.917,No
 Zone Internal Gains Nominal, THERMAL ZONE: F2-4 3-BED NE,130.99,4.0,32.748,3.054E-002,5.382,5.382,2.153,0.000,0.000,0.000,12.917,No
 Zone Internal Gains Nominal, THERMAL ZONE: F2-4 3-BED NW,130.99,4.0,32.748,3.054E-002,5.382,5.382,2.153,0.000,0.000,0.000,12.917,No
 Zone Internal Gains Nominal, THERMAL ZONE: F2-4 CORRIDOR,256.41,13.5,18.941,5.280E-002,6.154,2.983,0.154,0.000,0.000,0.000,9.292,No
 Zone Internal Gains Nominal, THERMAL ZONE: F2-4 STUDIO SE,50.17,2.0,25.084,3.987E-002,5.382,5.382,2.153,0.000,0.000,0.000,12.917,No
 Zone Internal Gains Nominal, THERMAL ZONE: F2-4 STUDIO SW,50.17,2.0,25.084,3.987E-002,5.382,5.382,2.153,0.000,0.000,0.000,12.917,No
 Zone Internal Gains Nominal, THERMAL ZONE: F5 1-BED CORE EAST,133.78,4.0,33.445,2.990E-002,5.382,5.382,2.153,0.000,0.000,0.000,12.917,No
 Zone Internal Gains Nominal, THERMAL ZONE: F5 1-BED CORE N,66.89,2.0,33.445,2.990E-002,5.382,5.382,2.153,0.000,0.000,0.000,12.917,No
 Zone Internal Gains Nominal, THERMAL ZONE: F5 1-BED CORE WEST,133.78,4.0,33.445,2.990E-002,5.382,5.382,2.153,0.000,0.000,0.000,12.917,No
 Zone Internal Gains Nominal, THERMAL ZONE: F5 1-BED NORTH,345.60,10.0,34.560,2.894E-002,5.382,5.382,2.153,0.000,0.000,0.000,12.917,No
 Zone Internal Gains Nominal, THERMAL ZONE: F5 2-BED CORE NE-NW,200.67,6.0,33.445,2.990E-002,5.382,5.382,2.153,0.000,0.000,0.000,12.917,No
 Zone Internal Gains Nominal, THERMAL ZONE: F5 2-BED EAST,301.01,9.0,33.445,2.990E-002,5.382,5.382,2.153,0.000,0.000,0.000,12.917,No
 Zone Internal Gains Nominal, THERMAL ZONE: F5 2-BED WEST,301.01,9.0,33.445,2.990E-002,5.382,5.382,2.153,0.000,0.000,0.000,12.917,No
 Zone Internal Gains Nominal, THERMAL ZONE: F5 3-BED NE,130.99,4.0,32.748,3.054E-002,5.382,5.382,2.153,0.000,0.000,0.000,12.917,No
 Zone Internal Gains Nominal, THERMAL ZONE: F5 3-BED NW,130.99,4.0,32.748,3.054E-002,5.382,5.382,2.153,0.000,0.000,0.000,12.917,No
 Zone Internal Gains Nominal, THERMAL ZONE: F5 CORRIDOR,256.41,13.5,18.941,5.280E-002,6.154,2.983,0.154,0.000,0.000,0.000,9.292,No
 Zone Internal Gains Nominal, THERMAL ZONE: F5 STUDIO SE,50.17,2.0,25.084,3.987E-002,5.382,5.382,2.153,0.000,0.000,0.000,12.917,No
 Zone Internal Gains Nominal, THERMAL ZONE: F5 STUDIO SW,50.17,2.0,25.084,3.987E-002,5.382,5.382,2.153,0.000,0.000,0.000,12.917,No
 Zone Internal Gains Nominal, THERMAL ZONE: PARKING GARAGE,2591.99,69.8,37.161,2.691E-002,1.076,0.000,0.000,0.000,0.000,0.000,1.076,No
! <People Internal Gains Nominal>,Name,Schedule Name,Zone Name,Zone Floor Area {m2},# Zone Occupants,Number of People {},People/Floor Area {person/m2},Floor Area per person {m2/person},Fraction Radiant,Fraction Convected,Sensible Fraction Calculation,Activity level,ASHRAE 55 Warnings,Carbon Dioxide Generation Rate,Nominal Minimum Number of People,Nominal Maximum Number of People
 People Internal Gains Nominal, F1 BUSINESS CENTER PEOPLE,RETAILOCCUPANCY,THERMAL ZONE: F1 BUSINESS CENTER,33.45,12.0,12.0,0.359,2.787,0.300,0.700,0.613,F1 BUSINESS CENTER PEOPLE ACTIVITY LEVEL,No,3.8200E-008,0,12
 People Internal Gains Nominal, F1 CORRIDOR PEOPLE,RETAILOCCUPANCY,THERMAL ZONE: F1 CORRIDOR,178.37,9.3,7.4,4.163E-002,24.023,0.300,0.700,0.500,F1 CORRIDOR PEOPLE ACTIVITY LEVEL,No,3.8200E-008,0,7
 People Internal Gains Nominal, F1 ELEVATOR CORE PEOPLE,RETAILOCCUPANCY,THERMAL ZONE: F1 CORRIDOR,178.37,9.3,3.8E-002,2.102E-004,4756.636,0.300,0.700,0.500,F1 ELEVATOR CORE PEOPLE ACTIVITY LEVEL,No,3.8200E-008,0,4.E-002
 People Internal Gains Nominal, F1 ELEVATOR N PEOPLE,RETAILOCCUPANCY,THERMAL ZONE: F1 CORRIDOR,178.37,9.3,3.8E-002,2.102E-004,4756.636,0.300,0.700,0.500,F1 ELEVATOR N PEOPLE ACTIVITY LEVEL,No,3.8200E-008,0,4.E-002
 People Internal Gains Nominal, F1 ELEVATOR S PEOPLE,RETAILOCCUPANCY,THERMAL ZONE: F1 CORRIDOR,178.37,9.3,3.8E-002,2.102E-004,4756.636,0.300,0.700,0.500,F1 ELEVATOR S PEOPLE ACTIVITY LEVEL,No,3.8200E-008,0,4.E-002
 People Internal Gains Nominal, F1 STAIRS E PEOPLE,RETAILOCCUPANCY,THERMAL ZONE: F1 CORRIDOR,178.37,9.3,0.9,5.046E-003,198.193,0.300,0.700,0.500,F1 STAIRS E PEOPLE ACTIVITY LEVEL,No,3.8200E-008,0,1
 People Internal Gains Nominal, F1 STAIRS W PEOPLE,RETAILOCCUPANCY,THERMAL ZONE: F1 CORRIDOR,178.37,9.3,0.9,5.046E-003,198.193,0.300,0.700,0.500,F1 STAIRS W PEOPLE ACTIVITY LEVEL,No,3.8200E-008,0,1
 People Internal Gains Nominal, F1 FITNESS CENTER PEOPLE,RETAILOCCUPANCY,THERMAL ZONE: F1 FITNESS CENTER,83.61,9.0,9.0,0.108,9.290,0.300,0.700,0.226,F1 FITNESS CENTER PEOPLE ACTIVITY LEVEL,No,3.8200E-008,0,9
 People Internal Gains Nominal, F1 LEASING OFFICE PEOPLE,RETAILOCCUPANCY,THERMAL ZONE: F1 LEASING OFFICE,32.05,1.7,1.7,5.382E-002,18.581,0.300,0.700,0.556,F1 LEASING OFFICE PEOPLE ACTIVITY LEVEL,No,3.8200E-008,0,2
 People Internal Gains Nominal, F1 LOUNGE PEOPLE,RETAILOCCUPANCY,THERMAL ZONE: F1 LOUNGE,97.55,35.0,35.0,0.359,2.787,0.300,0.700,0.500,F1 LOUNGE PEOPLE ACTIVITY LEVEL,No,3.8200E-008,0,35
 People Internal Gains Nominal, F1 MECHANICAL ROOM PEOPLE,RETAILOCCUPANCY,THERMAL ZONE: F1 MECHANICAL ROOM,40.13,0.6,0.6,1.615E-002,61.935,0.300,0.700,0.500,F1 MECHANICAL ROOM PEOPLE ACTIVITY LEVEL,No,3.8200E-008,0,1
 People Internal Gains Nominal, F1 RETAIL N CORE PEOPLE,RETAILOCCUPANCY,THERMAL ZONE: F1 RETAIL N-NW,556.02,49.9,13.9,2.496E-002,40.066,0.300,0.700,0.556,F1 RETAIL N CORE PEOPLE ACTIVITY LEVEL,No,3.8200E-008,0,14
 People Internal Gains Nominal, F1 RETAIL NW INNER CORE PEOPLE,RETAILOCCUPANCY,THERMAL ZONE: F1 RETAIL N-NW,556.02,49.9,12.0,2.159E-002,46.326,0.300,0.700,0.556,F1 RETAIL NW INNER CORE PEOPLE ACTIVITY LEVEL,No,3.8200E-008,0,12
 People Internal Gains Nominal, F1 RETAIL NW OUTER CORE PEOPLE,RETAILOCCUPANCY,THERMAL ZONE: F1 RETAIL N-NW,556.02,49.9,12.0,2.159E-002,46.326,0.300,0.700,0.556,F1 RETAIL NW OUTER CORE PEOPLE ACTIVITY LEVEL,No,3.8200E-008,0,12
 People Internal Gains Nominal, F1 RETAIL NW OUTER PEOPLE,RETAILOCCUPANCY,THERMAL ZONE: F1 RETAIL N-NW,556.02,49.9,12.0,2.159E-002,46.326,0.300,0.700,0.556,F1 RETAIL NW OUTER PEOPLE ACTIVITY LEVEL,No,3.8200E-008,0,12
 People Internal Gains Nominal, F1 RETAIL NE CORE PEOPLE,RETAILOCCUPANCY,THERMAL ZONE: F1 RETAIL NE,401.34,36.0,12.0,2.991E-002,33.438,0.300,0.700,0.556,F1 RETAIL NE CORE PEOPLE ACTIVITY LEVEL,No,3.8200E-008,0,12
 People Internal Gains Nominal, F1 RETAIL NE INNER PEOPLE,RETAILOCCUPANCY,THERMAL ZONE: F1 RETAIL NE,401.34,36.0,12.0,2.991E-002,33.438,0.300,0.700,0.556,F1 RETAIL NE INNER PEOPLE ACTIVITY LEVEL,No,3.8200E-008,0,12
 People Internal Gains Nominal, F1 RETAIL NE OUTER PEOPLE,RETAILOCCUPANCY,THERMAL ZONE: F1 RETAIL NE,401.34,36.0,12.0,2.991E-002,33.438,0.300,0.700,0.556,F1 RETAIL NE OUTER PEOPLE ACTIVITY LEVEL,No,3.8200E-008,0,12
 People Internal Gains Nominal, F1 RETAIL SE BOTTOM PEOPLE,RETAILOCCUPANCY,THERMAL ZONE: F1 RETAIL SE,267.56,24.0,12.0,4.486E-002,22.292,0.300,0.700,0.556,F1 RETAIL SE BOTTOM PEOPLE ACTIVITY LEVEL,No,3.8200E-008,0,12
 People Internal Gains Nominal, F1 RETAIL SE TOP PEOPLE,RETAILOCCUPANCY,THERMAL ZONE: F1 RETAIL SE,267.56,24.0,12.0,4.486E-002,22.292,0.300,0.700,0.556,F1 RETAIL SE TOP PEOPLE ACTIVITY LEVEL,No,3.8200E-008,0,12
 People Internal Gains Nominal, F1 RETAIL SW BOTTOM PEOPLE,RETAILOCCUPANCY,THERMAL ZONE: F1 RETAIL SW,411.37,36.9,12.0,2.918E-002,34.274,0.300,0.700,0.556,F1 RETAIL SW BOTTOM PEOPLE ACTIVITY LEVEL,No,3.8200E-008,0,12
 People Internal Gains Nominal, F1 RETAIL SW CORE PEOPLE,RETAILOCCUPANCY,THERMAL ZONE: F1 RETAIL SW,411.37,36.9,12.0,2.918E-002,34.274,0.300,0.700,0.556,F1 RETAIL SW CORE PEOPLE ACTIVITY LEVEL,No,3.8200E-008,0,12
 People Internal Gains Nominal, F1 RETAIL SW TOP PEOPLE,RETAILOCCUPANCY,THERMAL ZONE: F1 RETAIL SW,411.37,36.9,12.9,3.136E-002,31.883,0.300,0.700,0.556,F1 RETAIL SW TOP PEOPLE ACTIVITY LEVEL,No,3.8200E-008,0,13
 People Internal Gains Nominal, F2-4 1-BED CORE NE PEOPLE,RESIDENTIALLIVINGOCCUPANCY,THERMAL ZONE: F2-4 1-BED CORE EAST,133.78,4.0,2.0,1.495E-002,66.890,0.300,0.700,0.613,F2-4 1-BED CORE NE PEOPLE ACTIVITY LEVEL,No,3.8200E-008,0,2
 People Internal Gains Nominal, F2-4 1-BED CORE SE PEOPLE,RESIDENTIALLIVINGOCCUPANCY,THERMAL ZONE: F2-4 1-BED CORE EAST,133.78,4.0,2.0,1.495E-002,66.890,0.300,0.700,0.613,F2-4 1-BED CORE SE PEOPLE ACTIVITY LEVEL,No,3.8200E-008,0,2
 People Internal Gains Nominal, F2-4 1-BED CORE N PEOPLE,RESIDENTIALLIVINGOCCUPANCY,THERMAL ZONE: F2-4 1-BED CORE N,66.89,2.0,2.0,2.990E-002,33.445,0.300,0.700,0.613,F2-4 1-BED CORE N PEOPLE ACTIVITY LEVEL,No,3.8200E-008,0,2
 People Internal Gains Nominal, F2-4 1-BED CORE NW PEOPLE,RESIDENTIALLIVINGOCCUPANCY,THERMAL ZONE: F2-4 1-BED CORE WEST,133.78,4.0,2.0,1.495E-002,66.890,0.300,0.700,0.613,F2-4 1-BED CORE NW PEOPLE ACTIVITY LEVEL,No,3.8200E-008,0,2
 People Internal Gains Nominal, F2-4 1-BED CORE SW PEOPLE,RESIDENTIALLIVINGOCCUPANCY,THERMAL ZONE: F2-4 1-BED CORE WEST,133.78,4.0,2.0,1.495E-002,66.890,0.300,0.700,0.613,F2-4 1-BED CORE SW PEOPLE ACTIVITY LEVEL,No,3.8200E-008,0,2
 People Internal Gains Nominal, F2-4 1-BED N PEOPLE,RESIDENTIALLIVINGOCCUPANCY,THERMAL ZONE: F2-4 1-BED NORTH,345.60,10.0,2.0,5.787E-003,172.800,0.300,0.700,0.613,F2-4 1-BED N PEOPLE ACTIVITY LEVEL,No,3.8200E-008,0,2
 People Internal Gains Nominal, F2-4 1-BED NE CORE PEOPLE,RESIDENTIALLIVINGOCCUPANCY,THERMAL ZONE: F2-4 1-BED NORTH,345.60,10.0,2.0,5.787E-003,172.800,0.300,0.700,0.613,F2-4 1-BED NE CORE PEOPLE ACTIVITY LEVEL,No,3.8200E-008,0,2
 People Internal Gains Nominal, F2-4 1-BED NE OUTER PEOPLE,RESIDENTIALLIVINGOCCUPANCY,THERMAL ZONE: F2-4 1-BED NORTH,345.60,10.0,2.0,5.787E-003,172.800,0.300,0.700,0.613,F2-4 1-BED NE OUTER PEOPLE ACTIVITY LEVEL,No,3.8200E-008,0,2
 People Internal Gains Nominal, F2-4 1-BED NW CORE PEOPLE,RESIDENTIALLIVINGOCCUPANCY,THERMAL ZONE: F2-4 1-BED NORTH,345.60,10.0,2.0,5.787E-003,172.800,0.300,0.700,0.613,F2-4 1-BED NW CORE PEOPLE ACTIVITY LEVEL,No,3.8200E-008,0,2
 People Internal Gains Nominal, F2-4 1-BED NW OUTER PEOPLE,RESIDENTIALLIVINGOCCUPANCY,THERMAL ZONE: F2-4 1-BED NORTH,345.60,10.0,2.0,5.787E-003,172.800,0.300,0.700,0.613,F2-4 1-BED NW OUTER PEOPLE ACTIVITY LEVEL,No,3.8200E-008,0,2
 People Internal Gains Nominal, F2-4 2-BED CORE NE PEOPLE,RESIDENTIALLIVINGOCCUPANCY,THERMAL ZONE: F2-4 2-BED CORE NE-NW,200.67,6.0,3.0,1.495E-002,66.890,0.300,0.700,0.613,F2-4 2-BED CORE NE PEOPLE ACTIVITY LEVEL,No,3.8200E-008,0,3
 People Internal Gains Nominal, F2-4 2-BED CORE NW PEOPLE,RESIDENTIALLIVINGOCCUPANCY,THERMAL ZONE: F2-4 2-BED CORE NE-NW,200.67,6.0,3.0,1.495E-002,66.890,0.300,0.700,0.613,F2-4 2-BED CORE NW PEOPLE ACTIVITY LEVEL,No,3.8200E-008,0,3
 People Internal Gains Nominal, F2-4 2-BED NE PEOPLE,RESIDENTIALLIVINGOCCUPANCY,THERMAL ZONE: F2-4 2-BED EAST,301.01,9.0,3.0,9.967E-003,100.335,0.300,0.700,0.613,F2-4 2-BED NE PEOPLE ACTIVITY LEVEL,No,3.8200E-008,0,3
 People Internal Gains Nominal, F2-4 2-BED SE CORE PEOPLE,RESIDENTIALLIVINGOCCUPANCY,THERMAL ZONE: F2-4 2-BED EAST,301.01,9.0,3.0,9.967E-003,100.335,0.300,0.700,0.613,F2-4 2-BED SE CORE PEOPLE ACTIVITY LEVEL,No,3.8200E-008,0,3
 People Internal Gains Nominal, F2-4 2-BED SE PEOPLE,RESIDENTIALLIVINGOCCUPANCY,THERMAL ZONE: F2-4 2-BED EAST,301.01,9.0,3.0,9.967E-003,100.335,0.300,0.700,0.613,F2-4 2-BED SE PEOPLE ACTIVITY LEVEL,No,3.8200E-008,0,3
 People Internal Gains Nominal, F2-4 2-BED NW PEOPLE,RESIDENTIALLIVINGOCCUPANCY,THERMAL ZONE: F2-4 2-BED WEST,301.01,9.0,3.0,9.967E-003,100.335,0.300,0.700,0.613,F2-4 2-BED NW PEOPLE ACTIVITY LEVEL,No,3.8200E-008,0,3
 People Internal Gains Nominal, F2-4 2-BED SW CORE PEOPLE,RESIDENTIALLIVINGOCCUPANCY,THERMAL ZONE: F2-4 2-BED WEST,301.01,9.0,3.0,9.967E-003,100.335,0.300,0.700,0.613,F2-4 2-BED SW CORE PEOPLE ACTIVITY LEVEL,No,3.8200E-008,0,3
 People Internal Gains Nominal, F2-4 2-BED SW PEOPLE,RESIDENTIALLIVINGOCCUPANCY,THERMAL ZONE: F2-4 2-BED WEST,301.01,9.0,3.0,9.967E-003,100.335,0.300,0.700,0.613,F2-4 2-BED SW PEOPLE ACTIVITY LEVEL,No,3.8200E-008,0,3
 People Internal Gains Nominal, F2-4 3-BED NE PEOPLE,RESIDENTIALLIVINGOCCUPANCY,THERMAL ZONE: F2-4 3-BED NE,130.99,4.0,4.0,3.054E-002,32.748,0.300,0.700,0.613,F2-4 3-BED NE PEOPLE ACTIVITY LEVEL,No,3.8200E-008,0,4
 People Internal Gains Nominal, F2-4 3-BED NW PEOPLE,RESIDENTIALLIVINGOCCUPANCY,THERMAL ZONE: F2-4 3-BED NW,130.99,4.0,4.0,3.054E-002,32.748,0.300,0.700,0.613,F2-4 3-BED NW PEOPLE ACTIVITY LEVEL,No,3.8200E-008,0,4
 People Internal Gains Nominal, F2-4 CORRIDOR PEOPLE,OFFICEOCCUPANCY,THERMAL ZONE: F2-4 CORRIDOR,256.41,13.5,10.7,4.183E-002,23.908,0.300,0.700,0.500,F2-4 CORRIDOR PEOPLE ACTIVITY LEVEL,No,3.8200E-008,0,11
 People Internal Gains Nominal, F2-4 ELEVATOR CORE PEOPLE,OFFICEOCCUPANCY,THERMAL ZONE: F2-4 CORRIDOR,256.41,13.5,3.8E-002,1.462E-004,6837.664,0.300,0.700,0.500,F2-4 ELEVATOR CORE PEOPLE ACTIVITY LEVEL,No,3.8200E-008,0,4.E-002
 People Internal Gains Nominal, F2-4 ELEVATOR N PEOPLE,OFFICEOCCUPANCY,THERMAL ZONE: F2-4 CORRIDOR,256.41,13.5,3.8E-002,1.462E-004,6837.664,0.300,0.700,0.500,F2-4 ELEVATOR N PEOPLE ACTIVITY LEVEL,No,3.8200E-008,0,4.E-002
 People Internal Gains Nominal, F2-4 ELEVATOR S PEOPLE,OFFICEOCCUPANCY,THERMAL ZONE: F2-4 CORRIDOR,256.41,13.5,3.8E-002,1.462E-004,6837.664,0.300,0.700,0.500,F2-4 ELEVATOR S PEOPLE ACTIVITY LEVEL,No,3.8200E-008,0,4.E-002
 People Internal Gains Nominal, F2-4 LAUNDRY PEOPLE,OFFICEOCCUPANCY,THERMAL ZONE: F2-4 CORRIDOR,256.41,13.5,0.9,3.510E-003,284.903,0.300,0.700,0.500,F2-4 LAUNDRY PEOPLE ACTIVITY LEVEL,No,3.8200E-008,0,1
 People Internal Gains Nominal, F2-4 STAIR E PEOPLE,OFFICEOCCUPANCY,THERMAL ZONE: F2-4 CORRIDOR,256.41,13.5,0.9,3.510E-003,284.903,0.300,0.700,0.500,F2-4 STAIR E PEOPLE ACTIVITY LEVEL,No,3.8200E-008,0,1
 People Internal Gains Nominal, F2-4 STAIR W PEOPLE,OFFICEOCCUPANCY,THERMAL ZONE: F2-4 CORRIDOR,256.41,13.5,0.9,3.510E-003,284.903,0.300,0.700,0.500,F2-4 STAIR W PEOPLE ACTIVITY LEVEL,No,3.8200E-008,0,1
 People Internal Gains Nominal, F2-4 STUDIO SE PEOPLE,RESIDENTIALLIVINGOCCUPANCY,THERMAL ZONE: F2-4 STUDIO SE,50.17,2.0,2.0,3.987E-002,25.084,0.300,0.700,0.613,F2-4 STUDIO SE PEOPLE ACTIVITY LEVEL,No,3.8200E-008,0,2
 People Internal Gains Nominal, F2-4 STUDIO SW PEOPLE,RESIDENTIALLIVINGOCCUPANCY,THERMAL ZONE: F2-4 STUDIO SW,50.17,2.0,2.0,3.987E-002,25.084,0.300,0.700,0.613,F2-4 STUDIO SW PEOPLE ACTIVITY LEVEL,No,3.8200E-008,0,2
 People Internal Gains Nominal, F5 1-BED CORE NE PEOPLE,RESIDENTIALLIVINGOCCUPANCY,THERMAL ZONE: F5 1-BED CORE EAST,133.78,4.0,2.0,1.495E-002,66.890,0.300,0.700,0.613,F5 1-BED CORE NE PEOPLE ACTIVITY LEVEL,No,3.8200E-008,0,2
 People Internal Gains Nominal, F5 1-BED CORE SE PEOPLE,RESIDENTIALLIVINGOCCUPANCY,THERMAL ZONE: F5 1-BED CORE EAST,133.78,4.0,2.0,1.495E-002,66.890,0.300,0.700,0.613,F5 1-BED CORE SE PEOPLE ACTIVITY LEVEL,No,3.8200E-008,0,2
 People Internal Gains Nominal, F5 1-BED CORE N PEOPLE,RESIDENTIALLIVINGOCCUPANCY,THERMAL ZONE: F5 1-BED CORE N,66.89,2.0,2.0,2.990E-002,33.445,0.300,0.700,0.613,F5 1-BED CORE N PEOPLE ACTIVITY LEVEL,No,3.8200E-008,0,2
 People Internal Gains Nominal, F5 1-BED CORE NW PEOPLE,RESIDENTIALLIVINGOCCUPANCY,THERMAL ZONE: F5 1-BED CORE WEST,133.78,4.0,2.0,1.495E-002,66.890,0.300,0.700,0.613,F5 1-BED CORE NW PEOPLE ACTIVITY LEVEL,No,3.8200E-008,0,2
 People Internal Gains Nominal, F5 1-BED CORE SW PEOPLE,RESIDENTIALLIVINGOCCUPANCY,THERMAL ZONE: F5 1-BED CORE WEST,133.78,4.0,2.0,1.495E-002,66.890,0.300,0.700,0.613,F5 1-BED CORE SW PEOPLE ACTIVITY LEVEL,No,3.8200E-008,0,2
 People Internal Gains Nominal, F5 1-BED N PEOPLE,RESIDENTIALLIVINGOCCUPANCY,THERMAL ZONE: F5 1-BED NORTH,345.60,10.0,2.0,5.787E-003,172.800,0.300,0.700,0.613,F5 1-BED N PEOPLE ACTIVITY LEVEL,No,3.8200E-008,0,2
 People Internal Gains Nominal, F5 1-BED NE CORE PEOPLE,RESIDENTIALLIVINGOCCUPANCY,THERMAL ZONE: F5 1-BED NORTH,345.60,10.0,2.0,5.787E-003,172.800,0.300,0.700,0.613,F5 1-BED NE CORE PEOPLE ACTIVITY LEVEL,No,3.8200E-008,0,2
 People Internal Gains Nominal, F5 1-BED NE OUTER PEOPLE,RESIDENTIALLIVINGOCCUPANCY,THERMAL ZONE: F5 1-BED NORTH,345.60,10.0,2.0,5.787E-003,172.800,0.300,0.700,0.613,F5 1-BED NE OUTER PEOPLE ACTIVITY LEVEL,No,3.8200E-008,0,2
 People Internal Gains Nominal, F5 1-BED NW CORE PEOPLE,RESIDENTIALLIVINGOCCUPANCY,THERMAL ZONE: F5 1-BED NORTH,345.60,10.0,2.0,5.787E-003,172.800,0.300,0.700,0.613,F5 1-BED NW CORE PEOPLE ACTIVITY LEVEL,No,3.8200E-008,0,2
 People Internal Gains Nominal, F5 1-BED NW OUTER PEOPLE,RESIDENTIALLIVINGOCCUPANCY,THERMAL ZONE: F5 1-BED NORTH,345.60,10.0,2.0,5.787E-003,172.800,0.300,0.700,0.613,F5 1-BED NW OUTER PEOPLE ACTIVITY LEVEL,No,3.8200E-008,0,2
 People Internal Gains Nominal, F5 2-BED CORE NE PEOPLE,RESIDENTIALLIVINGOCCUPANCY,THERMAL ZONE: F5 2-BED CORE NE-NW,200.67,6.0,3.0,1.495E-002,66.890,0.300,0.700,0.613,F5 2-BED CORE NE PEOPLE ACTIVITY LEVEL,No,3.8200E-008,0,3
 People Internal Gains Nominal, F5 2-BED CORE NW PEOPLE,RESIDENTIALLIVINGOCCUPANCY,THERMAL ZONE: F5 2-BED CORE NE-NW,200.67,6.0,3.0,1.495E-002,66.890,0.300,0.700,0.613,F5 2-BED CORE NW PEOPLE ACTIVITY LEVEL,No,3.8200E-008,0,3
 People Internal Gains Nominal, F5 2-BED NE PEOPLE,RESIDENTIALLIVINGOCCUPANCY,THERMAL ZONE: F5 2-BED EAST,301.01,9.0,3.0,9.967E-003,100.335,0.300,0.700,0.613,F5 2-BED NE PEOPLE ACTIVITY LEVEL,No,3.8200E-008,0,3
 People Internal Gains Nominal, F5 2-BED SE CORE PEOPLE,RESIDENTIALLIVINGOCCUPANCY,THERMAL ZONE: F5 2-BED EAST,301.01,9.0,3.0,9.967E-003,100.335,0.300,0.700,0.613,F5 2-BED SE CORE PEOPLE ACTIVITY LEVEL,No,3.8200E-008,0,3
 People Internal Gains Nominal, F5 2-BED SE PEOPLE,RESIDENTIALLIVINGOCCUPANCY,THERMAL ZONE: F5 2-BED EAST,301.01,9.0,3.0,9.967E-003,100.335,0.300,0.700,0.613,F5 2-BED SE PEOPLE ACTIVITY LEVEL,No,3.8200E-008,0,3
 People Internal Gains Nominal, F5 2-BED NW PEOPLE,RESIDENTIALLIVINGOCCUPANCY,THERMAL ZONE: F5 2-BED WEST,301.01,9.0,3.0,9.967E-003,100.335,0.300,0.700,0.613,F5 2-BED NW PEOPLE ACTIVITY LEVEL,No,3.8200E-008,0,3
 People Internal Gains Nominal, F5 2-BED SW CORE PEOPLE,RESIDENTIALLIVINGOCCUPANCY,THERMAL ZONE: F5 2-BED WEST,301.01,9.0,3.0,9.967E-003,100.335,0.300,0.700,0.613,F5 2-BED SW CORE PEOPLE ACTIVITY LEVEL,No,3.8200E-008,0,3
 People Internal Gains Nominal, F5 2-BED SW PEOPLE,RESIDENTIALLIVINGOCCUPANCY,THERMAL ZONE: F5 2-BED WEST,301.01,9.0,3.0,9.967E-003,100.335,0.300,0.700,0.613,F5 2-BED SW PEOPLE ACTIVITY LEVEL,No,3.8200E-008,0,3
 People Internal Gains Nominal, F5 3-BED NE PEOPLE,RESIDENTIALLIVINGOCCUPANCY,THERMAL ZONE: F5 3-BED NE,130.99,4.0,4.0,3.054E-002,32.748,0.300,0.700,0.613,F5 3-BED NE PEOPLE ACTIVITY LEVEL,No,3.8200E-008,0,4
 People Internal Gains Nominal, F5 3-BED NW PEOPLE,RESIDENTIALLIVINGOCCUPANCY,THERMAL ZONE: F5 3-BED NW,130.99,4.0,4.0,3.054E-002,32.748,0.300,0.700,0.613,F5 3-BED NW PEOPLE ACTIVITY LEVEL,No,3.8200E-008,0,4
 People Internal Gains Nominal, F5 CORRIDOR PEOPLE,OFFICEOCCUPANCY,THERMAL ZONE: F5 CORRIDOR,256.41,13.5,10.7,4.183E-002,23.908,0.300,0.700,0.500,F5 CORRIDOR PEOPLE ACTIVITY LEVEL,No,3.8200E-008,0,11
 People Internal Gains Nominal, F5 ELEVATOR CORE PEOPLE,OFFICEOCCUPANCY,THERMAL ZONE: F5 CORRIDOR,256.41,13.5,3.8E-002,1.462E-004,6837.664,0.300,0.700,0.500,F5 ELEVATOR CORE PEOPLE ACTIVITY LEVEL,No,3.8200E-008,0,4.E-002
 People Internal Gains Nominal, F5 ELEVATOR N PEOPLE,OFFICEOCCUPANCY,THERMAL ZONE: F5 CORRIDOR,256.41,13.5,3.8E-002,1.462E-004,6837.664,0.300,0.700,0.500,F5 ELEVATOR N PEOPLE ACTIVITY LEVEL,No,3.8200E-008,0,4.E-002
 People Internal Gains Nominal, F5 ELEVATOR S PEOPLE,OFFICEOCCUPANCY,THERMAL ZONE: F5 CORRIDOR,256.41,13.5,3.8E-002,1.462E-004,6837.664,0.300,0.700,0.500,F5 ELEVATOR S PEOPLE ACTIVITY LEVEL,No,3.8200E-008,0,4.E-002
 People Internal Gains Nominal, F5 LAUNDRY PEOPLE,OFFICEOCCUPANCY,THERMAL ZONE: F5 CORRIDOR,256.41,13.5,0.9,3.510E-003,284.903,0.300,0.700,0.500,F5 LAUNDRY PEOPLE ACTIVITY LEVEL,No,3.8200E-008,0,1
 People Internal Gains Nominal, F5 STAIR E PEOPLE,OFFICEOCCUPANCY,THERMAL ZONE: F5 CORRIDOR,256.41,13.5,0.9,3.510E-003,284.903,0.300,0.700,0.500,F5 STAIR E PEOPLE ACTIVITY LEVEL,No,3.8200E-008,0,1
 People Internal Gains Nominal, F5 STAIR W PEOPLE,OFFICEOCCUPANCY,THERMAL ZONE: F5 CORRIDOR,256.41,13.5,0.9,3.510E-003,284.903,0.300,0.700,0.500,F5 STAIR W PEOPLE ACTIVITY LEVEL,No,3.8200E-008,0,1
 People Internal Gains Nominal, F5 STUDIO SE PEOPLE,RESIDENTIALLIVINGOCCUPANCY,THERMAL ZONE: F5 STUDIO SE,50.17,2.0,2.0,3.987E-002,25.084,0.300,0.700,0.613,F5 STUDIO SE PEOPLE ACTIVITY LEVEL,No,3.8200E-008,0,2
 People Internal Gains Nominal, F5 STUDIO SW PEOPLE,RESIDENTIALLIVINGOCCUPANCY,THERMAL ZONE: F5 STUDIO SW,50.17,2.0,2.0,3.987E-002,25.084,0.300,0.700,0.613,F5 STUDIO SW PEOPLE ACTIVITY LEVEL,No,3.8200E-008,0,2
 People Internal Gains Nominal, PARKING GARAGE PEOPLE,PARKINGOCCUPANCY,THERMAL ZONE: PARKING GARAGE,2591.99,69.8,69.8,2.691E-002,37.161,0.300,0.700,0.556,PARKING GARAGE PEOPLE ACTIVITY LEVEL,No,3.8200E-008,0,70
! <Lights Internal Gains Nominal>,Name,Schedule Name,Zone Name,Zone Floor Area {m2},# Zone Occupants,Lighting Level {W},Lights/Floor Area {W/m2},Lights per person {W/person},Fraction Return Air,Fraction Radiant,Fraction Short Wave,Fraction Convected,Fraction Replaceable,End-Use Category,Nominal Minimum Lighting Level {W},Nominal Maximum Lighting Level {W}
 Lights Internal Gains Nominal, F1 BUSINESS CENTER REGULATED LIGHTS,RETAILLIGHTS,THERMAL ZONE: F1 BUSINESS CENTER,33.45,12.0,306.000,9.149,25.499,0.000,0.580,0.000,0.420,1.000,ComplianceLtg,0.000,306.000
 Lights Internal Gains Nominal, F1 CORRIDOR REGULATED LIGHTS,RETAILLIGHTS,THERMAL ZONE: F1 CORRIDOR,178.37,9.3,891.000,4.995,95.422,0.000,0.580,0.000,0.420,1.000,ComplianceLtg,0.000,891.000
 Lights Internal Gains Nominal, F1 ELEVATOR CORE REGULATED LIGHTS,RETAILLIGHTS,THERMAL ZONE: F1 CORRIDOR,178.37,9.3,10.000,5.606E-002,1.071,0.000,0.580,0.000,0.420,1.000,ComplianceLtg,0.000,10.000
 Lights Internal Gains Nominal, F1 ELEVATOR N REGULATED LIGHTS,RETAILLIGHTS,THERMAL ZONE: F1 CORRIDOR,178.37,9.3,10.000,5.606E-002,1.071,0.000,0.580,0.000,0.420,1.000,ComplianceLtg,0.000,10.000
 Lights Internal Gains Nominal, F1 ELEVATOR S REGULATED LIGHTS,RETAILLIGHTS,THERMAL ZONE: F1 CORRIDOR,178.37,9.3,10.000,5.606E-002,1.071,0.000,0.580,0.000,0.420,1.000,ComplianceLtg,0.000,10.000
 Lights Internal Gains Nominal, F1 STAIRS E REGULATED LIGHTS,RETAILLIGHTS,THERMAL ZONE: F1 CORRIDOR,178.37,9.3,90.000,0.505,9.639,0.000,0.580,0.000,0.420,1.000,ComplianceLtg,0.000,90.000
 Lights Internal Gains Nominal, F1 STAIRS W REGULATED LIGHTS,RETAILLIGHTS,THERMAL ZONE: F1 CORRIDOR,178.37,9.3,90.000,0.505,9.639,0.000,0.580,0.000,0.420,1.000,ComplianceLtg,0.000,90.000
 Lights Internal Gains Nominal, F1 FITNESS CENTER REGULATED LIGHTS,RETAILLIGHTS,THERMAL ZONE: F1 FITNESS CENTER,83.61,9.0,450.000,5.382,50.000,0.000,0.580,0.000,0.420,1.000,ComplianceLtg,0.000,450.000
 Lights Internal Gains Nominal, F1 LEASING OFFICE REGULATED LIGHTS,RETAILLIGHTS,THERMAL ZONE: F1 LEASING OFFICE,32.05,1.7,224.250,6.997,130.000,0.000,0.580,0.000,0.420,1.000,ComplianceLtg,0.000,224.250
 Lights Internal Gains Nominal, F1 LOUNGE REGULATED LIGHTS,RETAILLIGHTS,THERMAL ZONE: F1 LOUNGE,97.55,35.0,682.500,6.997,19.499,0.000,0.580,0.000,0.420,1.000,ComplianceLtg,0.000,682.500
 Lights Internal Gains Nominal, F1 MECHANICAL ROOM REGULATED LIGHTS,RETAILLIGHTS,THERMAL ZONE: F1 MECHANICAL ROOM,40.13,0.6,172.800,4.306,266.667,0.000,0.580,0.000,0.420,1.000,ComplianceLtg,0.000,172.800
 Lights Internal Gains Nominal, F1 RETAIL N CORE REGULATED LIGHTS,RETAILLIGHTS,THERMAL ZONE: F1 RETAIL N-NW,556.02,49.9,1665.000,2.994,33.377,0.000,0.580,0.000,0.420,1.000,ComplianceLtg,0.000,1665.000
 Lights Internal Gains Nominal, F1 RETAIL NW INNER CORE REGULATED LIGHTS,RETAILLIGHTS,THERMAL ZONE: F1 RETAIL N-NW,556.02,49.9,1440.000,2.590,28.866,0.000,0.580,0.000,0.420,1.000,ComplianceLtg,0.000,1440.000
 Lights Internal Gains Nominal, F1 RETAIL NW OUTER CORE REGULATED LIGHTS,RETAILLIGHTS,THERMAL ZONE: F1 RETAIL N-NW,556.02,49.9,1440.000,2.590,28.866,0.000,0.580,0.000,0.420,1.000,ComplianceLtg,0.000,1440.000
 Lights Internal Gains Nominal, F1 RETAIL NW OUTER REGULATED LIGHTS,RETAILLIGHTS,THERMAL ZONE: F1 RETAIL N-NW,556.02,49.9,1440.000,2.590,28.866,0.000,0.580,0.000,0.420,1.000,ComplianceLtg,0.000,1440.000
 Lights Internal Gains Nominal, F1 RETAIL NE CORE REGULATED LIGHTS,RETAILLIGHTS,THERMAL ZONE: F1 RETAIL NE,401.34,36.0,1440.000,3.588,39.992,0.000,0.580,0.000,0.420,1.000,ComplianceLtg,0.000,1440.000
 Lights Internal Gains Nominal, F1 RETAIL NE INNER REGULATED LIGHTS,RETAILLIGHTS,THERMAL ZONE: F1 RETAIL NE,401.34,36.0,1440.000,3.588,39.992,0.000,0.580,0.000,0.420,1.000,ComplianceLtg,0.000,1440.000
 Lights Internal Gains Nominal, F1 RETAIL NE OUTER REGULATED LIGHTS,RETAILLIGHTS,THERMAL ZONE: F1 RETAIL NE,401.34,36.0,1440.000,3.588,39.992,0.000,0.580,0.000,0.420,1.000,ComplianceLtg,0.000,1440.000
 Lights Internal Gains Nominal, F1 RETAIL SE BOTTOM REGULATED LIGHTS,RETAILLIGHTS,THERMAL ZONE: F1 RETAIL SE,267.56,24.0,1440.000,5.382,59.988,0.000,0.580,0.000,0.420,1.000,ComplianceLtg,0.000,1440.000
 Lights Internal Gains Nominal, F1 RETAIL SE TOP REGULATED LIGHTS,RETAILLIGHTS,THERMAL ZONE: F1 RETAIL SE,267.56,24.0,1440.000,5.382,59.988,0.000,0.580,0.000,0.420,1.000,ComplianceLtg,0.000,1440.000
 Lights Internal Gains Nominal, F1 RETAIL SW BOTTOM REGULATED LIGHTS,RETAILLIGHTS,THERMAL ZONE: F1 RETAIL SW,411.37,36.9,1440.000,3.500,39.017,0.000,0.580,0.000,0.420,1.000,ComplianceLtg,0.000,1440.000
 Lights Internal Gains Nominal, F1 RETAIL SW CORE REGULATED LIGHTS,RETAILLIGHTS,THERMAL ZONE: F1 RETAIL SW,411.37,36.9,1440.000,3.500,39.017,0.000,0.580,0.000,0.420,1.000,ComplianceLtg,0.000,1440.000
 Lights Internal Gains Nominal, F1 RETAIL SW TOP REGULATED LIGHTS,RETAILLIGHTS,THERMAL ZONE: F1 RETAIL SW,411.37,36.9,1548.000,3.763,41.943,0.000,0.580,0.000,0.420,1.000,ComplianceLtg,0.000,1548.000
 Lights Internal Gains Nominal, F2-4 1-BED CORE NE NON-REGULATED LIGHTS,RESIDENTIALLIVINGLIGHTS,THERMAL ZONE: F2-4 1-BED CORE EAST,133.78,4.0,360.000,2.691,90.000,0.000,0.580,0.000,0.420,1.000,NonComplianceLtg,0.000,360.000
 Lights Internal Gains Nominal, F2-4 1-BED CORE SE NON-REGULATED LIGHTS,RESIDENTIALLIVINGLIGHTS,THERMAL ZONE: F2-4 1-BED CORE EAST,133.78,4.0,360.000,2.691,90.000,0.000,0.580,0.000,0.420,1.000,NonComplianceLtg,0.000,360.000
 Lights Internal Gains Nominal, F2-4 1-BED CORE N NON-REGULATED LIGHTS,RESIDENTIALLIVINGLIGHTS,THERMAL ZONE: F2-4 1-BED CORE N,66.89,2.0,360.000,5.382,180.000,0.000,0.580,0.000,0.420,1.000,NonComplianceLtg,0.000,360.000
 Lights Internal Gains Nominal, F2-4 1-BED CORE NW NON-REGULATED LIGHTS,RESIDENTIALLIVINGLIGHTS,THERMAL ZONE: F2-4 1-BED CORE WEST,133.78,4.0,360.000,2.691,90.000,0.000,0.580,0.000,0.420,1.000,NonComplianceLtg,0.000,360.000
 Lights Internal Gains Nominal, F2-4 1-BED CORE SW NON-REGULATED LIGHTS,RESIDENTIALLIVINGLIGHTS,THERMAL ZONE: F2-4 1-BED CORE WEST,133.78,4.0,360.000,2.691,90.000,0.000,0.580,0.000,0.420,1.000,NonComplianceLtg,0.000,360.000
 Lights Internal Gains Nominal, F2-4 1-BED N NON-REGULATED LIGHTS,RESIDENTIALLIVINGLIGHTS,THERMAL ZONE: F2-4 1-BED NORTH,345.60,10.0,372.000,1.076,37.200,0.000,0.580,0.000,0.420,1.000,NonComplianceLtg,0.000,372.000
 Lights Internal Gains Nominal, F2-4 1-BED NE CORE NON-REGULATED LIGHTS,RESIDENTIALLIVINGLIGHTS,THERMAL ZONE: F2-4 1-BED NORTH,345.60,10.0,372.000,1.076,37.200,0.000,0.580,0.000,0.420,1.000,NonComplianceLtg,0.000,372.000
 Lights Internal Gains Nominal, F2-4 1-BED NE OUTER NON-REGULATED LIGHTS,RESIDENTIALLIVINGLIGHTS,THERMAL ZONE: F2-4 1-BED NORTH,345.60,10.0,372.000,1.076,37.200,0.000,0.580,0.000,0.420,1.000,NonComplianceLtg,0.000,372.000
 Lights Internal Gains Nominal, F2-4 1-BED NW CORE NON-REGULATED LIGHTS,RESIDENTIALLIVINGLIGHTS,THERMAL ZONE: F2-4 1-BED NORTH,345.60,10.0,372.000,1.076,37.200,0.000,0.580,0.000,0.420,1.000,NonComplianceLtg,0.000,372.000
 Lights Internal Gains Nominal, F2-4 1-BED NW OUTER NON-REGULATED LIGHTS,RESIDENTIALLIVINGLIGHTS,THERMAL ZONE: F2-4 1-BED NORTH,345.60,10.0,372.000,1.076,37.200,0.000,0.580,0.000,0.420,1.000,NonComplianceLtg,0.000,372.000
 Lights Internal Gains Nominal, F2-4 2-BED CORE NE NON-REGULATED LIGHTS,RESIDENTIALLIVINGLIGHTS,THERMAL ZONE: F2-4 2-BED CORE NE-NW,200.67,6.0,540.000,2.691,90.000,0.000,0.580,0.000,0.420,1.000,NonComplianceLtg,0.000,540.000
 Lights Internal Gains Nominal, F2-4 2-BED CORE NW NON-REGULATED LIGHTS,RESIDENTIALLIVINGLIGHTS,THERMAL ZONE: F2-4 2-BED CORE NE-NW,200.67,6.0,540.000,2.691,90.000,0.000,0.580,0.000,0.420,1.000,NonComplianceLtg,0.000,540.000
 Lights Internal Gains Nominal, F2-4 2-BED NE NON-REGULATED LIGHTS,RESIDENTIALLIVINGLIGHTS,THERMAL ZONE: F2-4 2-BED EAST,301.01,9.0,540.000,1.794,60.000,0.000,0.580,0.000,0.420,1.000,NonComplianceLtg,0.000,540.000
 Lights Internal Gains Nominal, F2-4 2-BED SE CORE NON-REGULATED LIGHTS,RESIDENTIALLIVINGLIGHTS,THERMAL ZONE: F2-4 2-BED EAST,301.01,9.0,540.000,1.794,60.000,0.000,0.580,0.000,0.420,1.000,NonComplianceLtg,0.000,540.000
 Lights Internal Gains Nominal, F2-4 2-BED SE NON-REGULATED LIGHTS,RESIDENTIALLIVINGLIGHTS,THERMAL ZONE: F2-4 2-BED EAST,301.01,9.0,540.000,1.794,60.000,0.000,0.580,0.000,0.420,1.000,NonComplianceLtg,0.000,540.000
 Lights Internal Gains Nominal, F2-4 2-BED NW NON-REGULATED LIGHTS,RESIDENTIALLIVINGLIGHTS,THERMAL ZONE: F2-4 2-BED WEST,301.01,9.0,540.000,1.794,60.000,0.000,0.580,0.000,0.420,1.000,NonComplianceLtg,0.000,540.000
 Lights Internal Gains Nominal, F2-4 2-BED SW CORE NON-REGULATED LIGHTS,RESIDENTIALLIVINGLIGHTS,THERMAL ZONE: F2-4 2-BED WEST,301.01,9.0,540.000,1.794,60.000,0.000,0.580,0.000,0.420,1.000,NonComplianceLtg,0.000,540.000
 Lights Internal Gains Nominal, F2-4 2-BED SW NON-REGULATED LIGHTS,RESIDENTIALLIVINGLIGHTS,THERMAL ZONE: F2-4 2-BED WEST,301.01,9.0,540.000,1.794,60.000,0.000,0.580,0.000,0.420,1.000,NonComplianceLtg,0.000,540.000
 Lights Internal Gains Nominal, F2-4 3-BED NE NON-REGULATED LIGHTS,RESIDENTIALLIVINGLIGHTS,THERMAL ZONE: F2-4 3-BED NE,130.99,4.0,705.000,5.382,176.250,0.000,0.580,0.000,0.420,1.000,NonComplianceLtg,0.000,705.000
 Lights Internal Gains Nominal, F2-4 3-BED NW NON-REGULATED LIGHTS,RESIDENTIALLIVINGLIGHTS,THERMAL ZONE: F2-4 3-BED NW,130.99,4.0,705.000,5.382,176.250,0.000,0.580,0.000,0.420,1.000,NonComplianceLtg,0.000,705.000
 Lights Internal Gains Nominal, F2-4 CORRIDOR REGULATED LIGHTS,OFFICELIGHTS,THERMAL ZONE: F2-4 CORRIDOR,256.41,13.5,1287.000,5.019,95.069,0.000,0.580,0.000,0.420,1.000,ComplianceLtg,0.000,1287.000
 Lights Internal Gains Nominal, F2-4 ELEVATOR CORE REGULATED LIGHTS,OFFICELIGHTS,THERMAL ZONE: F2-4 CORRIDOR,256.41,13.5,10.000,3.900E-002,0.739,0.000,0.580,0.000,0.420,1.000,ComplianceLtg,0.000,10.000
 Lights Internal Gains Nominal, F2-4 ELEVATOR N REGULATED LIGHTS,OFFICELIGHTS,THERMAL ZONE: F2-4 CORRIDOR,256.41,13.5,10.000,3.900E-002,0.739,0.000,0.580,0.000,0.420,1.000,ComplianceLtg,0.000,10.000
 Lights Internal Gains Nominal, F2-4 ELEVATOR S REGULATED LIGHTS,OFFICELIGHTS,THERMAL ZONE: F2-4 CORRIDOR,256.41,13.5,10.000,3.900E-002,0.739,0.000,0.580,0.000,0.420,1.000,ComplianceLtg,0.000,10.000
 Lights Internal Gains Nominal, F2-4 LAUNDRY REGULATED LIGHTS,OFFICELIGHTS,THERMAL ZONE: F2-4 CORRIDOR,256.41,13.5,81.000,0.316,5.983,0.000,0.580,0.000,0.420,1.000,ComplianceLtg,0.000,81.000
 Lights Internal Gains Nominal, F2-4 STAIR E REGULATED LIGHTS,OFFICELIGHTS,THERMAL ZONE: F2-4 CORRIDOR,256.41,13.5,90.000,0.351,6.648,0.000,0.580,0.000,0.420,1.000,ComplianceLtg,0.000,90.000
 Lights Internal Gains Nominal, F2-4 STAIR W REGULATED LIGHTS,OFFICELIGHTS,THERMAL ZONE: F2-4 CORRIDOR,256.41,13.5,90.000,0.351,6.648,0.000,0.580,0.000,0.420,1.000,ComplianceLtg,0.000,90.000
 Lights Internal Gains Nominal, F2-4 STUDIO SE NON-REGULATED LIGHTS,RESIDENTIALLIVINGLIGHTS,THERMAL ZONE: F2-4 STUDIO SE,50.17,2.0,270.000,5.382,135.000,0.000,0.580,0.000,0.420,1.000,NonComplianceLtg,0.000,270.000
 Lights Internal Gains Nominal, F2-4 STUDIO SW NON-REGULATED LIGHTS,RESIDENTIALLIVINGLIGHTS,THERMAL ZONE: F2-4 STUDIO SW,50.17,2.0,270.000,5.382,135.000,0.000,0.580,0.000,0.420,1.000,NonComplianceLtg,0.000,270.000
 Lights Internal Gains Nominal, F5 1-BED CORE NE NON-REGULATED LIGHTS,RESIDENTIALLIVINGLIGHTS,THERMAL ZONE: F5 1-BED CORE EAST,133.78,4.0,360.000,2.691,90.000,0.000,0.580,0.000,0.420,1.000,NonComplianceLtg,0.000,360.000
 Lights Internal Gains Nominal, F5 1-BED CORE SE NON-REGULATED LIGHTS,RESIDENTIALLIVINGLIGHTS,THERMAL ZONE: F5 1-BED CORE EAST,133.78,4.0,360.000,2.691,90.000,0.000,0.580,0.000,0.420,1.000,NonComplianceLtg,0.000,360.000
 Lights Internal Gains Nominal, F5 1-BED CORE N NON-REGULATED LIGHTS,RESIDENTIALLIVINGLIGHTS,THERMAL ZONE: F5 1-BED CORE N,66.89,2.0,360.000,5.382,180.000,0.000,0.580,0.000,0.420,1.000,NonComplianceLtg,0.000,360.000
 Lights Internal Gains Nominal, F5 1-BED CORE NW NON-REGULATED LIGHTS,RESIDENTIALLIVINGLIGHTS,THERMAL ZONE: F5 1-BED CORE WEST,133.78,4.0,360.000,2.691,90.000,0.000,0.580,0.000,0.420,1.000,NonComplianceLtg,0.000,360.000
 Lights Internal Gains Nominal, F5 1-BED CORE SW NON-REGULATED LIGHTS,RESIDENTIALLIVINGLIGHTS,THERMAL ZONE: F5 1-BED CORE WEST,133.78,4.0,360.000,2.691,90.000,0.000,0.580,0.000,0.420,1.000,NonComplianceLtg,0.000,360.000
 Lights Internal Gains Nominal, F5 1-BED N NON-REGULATED LIGHTS,RESIDENTIALLIVINGLIGHTS,THERMAL ZONE: F5 1-BED NORTH,345.60,10.0,372.000,1.076,37.200,0.000,0.580,0.000,0.420,1.000,NonComplianceLtg,0.000,372.000
 Lights Internal Gains Nominal, F5 1-BED NE CORE NON-REGULATED LIGHTS,RESIDENTIALLIVINGLIGHTS,THERMAL ZONE: F5 1-BED NORTH,345.60,10.0,372.000,1.076,37.200,0.000,0.580,0.000,0.420,1.000,NonComplianceLtg,0.000,372.000
 Lights Internal Gains Nominal, F5 1-BED NE OUTER NON-REGULATED LIGHTS,RESIDENTIALLIVINGLIGHTS,THERMAL ZONE: F5 1-BED NORTH,345.60,10.0,372.000,1.076,37.200,0.000,0.580,0.000,0.420,1.000,NonComplianceLtg,0.000,372.000
 Lights Internal Gains Nominal, F5 1-BED NW CORE NON-REGULATED LIGHTS,RESIDENTIALLIVINGLIGHTS,THERMAL ZONE: F5 1-BED NORTH,345.60,10.0,372.000,1.076,37.200,0.000,0.580,0.000,0.420,1.000,NonComplianceLtg,0.000,372.000
 Lights Internal Gains Nominal, F5 1-BED NW OUTER NON-REGULATED LIGHTS,RESIDENTIALLIVINGLIGHTS,THERMAL ZONE: F5 1-BED NORTH,345.60,10.0,372.000,1.076,37.200,0.000,0.580,0.000,0.420,1.000,NonComplianceLtg,0.000,372.000
 Lights Internal Gains Nominal, F5 2-BED CORE NE NON-REGULATED LIGHTS,RESIDENTIALLIVINGLIGHTS,THERMAL ZONE: F5 2-BED CORE NE-NW,200.67,6.0,540.000,2.691,90.000,0.000,0.580,0.000,0.420,1.000,NonComplianceLtg,0.000,540.000
 Lights Internal Gains Nominal, F5 2-BED CORE NW NON-REGULATED LIGHTS,RESIDENTIALLIVINGLIGHTS,THERMAL ZONE: F5 2-BED CORE NE-NW,200.67,6.0,540.000,2.691,90.000,0.000,0.580,0.000,0.420,1.000,NonComplianceLtg,0.000,540.000
 Lights Internal Gains Nominal, F5 2-BED NE NON-REGULATED LIGHTS,RESIDENTIALLIVINGLIGHTS,THERMAL ZONE: F5 2-BED EAST,301.01,9.0,540.000,1.794,60.000,0.000,0.580,0.000,0.420,1.000,NonComplianceLtg,0.000,540.000
 Lights Internal Gains Nominal, F5 2-BED SE CORE NON-REGULATED LIGHTS,RESIDENTIALLIVINGLIGHTS,THERMAL ZONE: F5 2-BED EAST,301.01,9.0,540.000,1.794,60.000,0.000,0.580,0.000,0.420,1.000,NonComplianceLtg,0.000,540.000
 Lights Internal Gains Nominal, F5 2-BED SE NON-REGULATED LIGHTS,RESIDENTIALLIVINGLIGHTS,THERMAL ZONE: F5 2-BED EAST,301.01,9.0,540.000,1.794,60.000,0.000,0.580,0.000,0.420,1.000,NonComplianceLtg,0.000,540.000
 Lights Internal Gains Nominal, F5 2-BED NW NON-REGULATED LIGHTS,RESIDENTIALLIVINGLIGHTS,THERMAL ZONE: F5 2-BED WEST,301.01,9.0,540.000,1.794,60.000,0.000,0.580,0.000,0.420,1.000,NonComplianceLtg,0.000,540.000
 Lights Internal Gains Nominal, F5 2-BED SW CORE NON-REGULATED LIGHTS,RESIDENTIALLIVINGLIGHTS,THERMAL ZONE: F5 2-BED WEST,301.01,9.0,540.000,1.794,60.000,0.000,0.580,0.000,0.420,1.000,NonComplianceLtg,0.000,540.000
 Lights Internal Gains Nominal, F5 2-BED SW NON-REGULATED LIGHTS,RESIDENTIALLIVINGLIGHTS,THERMAL ZONE: F5 2-BED WEST,301.01,9.0,540.000,1.794,60.000,0.000,0.580,0.000,0.420,1.000,NonComplianceLtg,0.000,540.000
 Lights Internal Gains Nominal, F5 3-BED NE NON-REGULATED LIGHTS,RESIDENTIALLIVINGLIGHTS,THERMAL ZONE: F5 3-BED NE,130.99,4.0,705.000,5.382,176.250,0.000,0.580,0.000,0.420,1.000,NonComplianceLtg,0.000,705.000
 Lights Internal Gains Nominal, F5 3-BED NW NON-REGULATED LIGHTS,RESIDENTIALLIVINGLIGHTS,THERMAL ZONE: F5 3-BED NW,130.99,4.0,705.000,5.382,176.250,0.000,0.580,0.000,0.420,1.000,NonComplianceLtg,0.000,705.000
 Lights Internal Gains Nominal, F5 CORRIDOR REGULATED LIGHTS,OFFICELIGHTS,THERMAL ZONE: F5 CORRIDOR,256.41,13.5,1287.000,5.019,95.069,0.000,0.580,0.000,0.420,1.000,ComplianceLtg,0.000,1287.000
 Lights Internal Gains Nominal, F5 ELEVATOR CORE REGULATED LIGHTS,OFFICELIGHTS,THERMAL ZONE: F5 CORRIDOR,256.41,13.5,10.000,3.900E-002,0.739,0.000,0.580,0.000,0.420,1.000,ComplianceLtg,0.000,10.000
 Lights Internal Gains Nominal, F5 ELEVATOR N REGULATED LIGHTS,OFFICELIGHTS,THERMAL ZONE: F5 CORRIDOR,256.41,13.5,10.000,3.900E-002,0.739,0.000,0.580,0.000,0.420,1.000,ComplianceLtg,0.000,10.000
 Lights Internal Gains Nominal, F5 ELEVATOR S REGULATED LIGHTS,OFFICELIGHTS,THERMAL ZONE: F5 CORRIDOR,256.41,13.5,10.000,3.900E-002,0.739,0.000,0.580,0.000,0.420,1.000,ComplianceLtg,0.000,10.000
 Lights Internal Gains Nominal, F5 LAUNDRY REGULATED LIGHTS,OFFICELIGHTS,THERMAL ZONE: F5 CORRIDOR,256.41,13.5,81.000,0.316,5.983,0.000,0.580,0.000,0.420,1.000,ComplianceLtg,0.000,81.000
 Lights Internal Gains Nominal, F5 STAIR E REGULATED LIGHTS,OFFICELIGHTS,THERMAL ZONE: F5 CORRIDOR,256.41,13.5,90.000,0.351,6.648,0.000,0.580,0.000,0.420,1.000,ComplianceLtg,0.000,90.000
 Lights Internal Gains Nominal, F5 STAIR W REGULATED LIGHTS,OFFICELIGHTS,THERMAL ZONE: F5 CORRIDOR,256.41,13.5,90.000,0.351,6.648,0.000,0.580,0.000,0.420,1.000,ComplianceLtg,0.000,90.000
 Lights Internal Gains Nominal, F5 STUDIO SE NON-REGULATED LIGHTS,RESIDENTIALLIVINGLIGHTS,THERMAL ZONE: F5 STUDIO SE,50.17,2.0,270.000,5.382,135.000,0.000,0.580,0.000,0.420,1.000,NonComplianceLtg,0.000,270.000
 Lights Internal Gains Nominal, F5 STUDIO SW NON-REGULATED LIGHTS,RESIDENTIALLIVINGLIGHTS,THERMAL ZONE: F5 STUDIO SW,50.17,2.0,270.000,5.382,135.000,0.000,0.580,0.000,0.420,1.000,NonComplianceLtg,0.000,270.000
 Lights Internal Gains Nominal, PARKING GARAGE REGULATED LIGHTS,PARKINGLIGHTS,THERMAL ZONE: PARKING GARAGE,2591.99,69.8,2790.000,1.076,40.000,0.000,0.580,0.000,0.420,1.000,NonComplianceLtg,0.000,2790.000
! <ElectricEquipment Internal Gains Nominal>,Name,Schedule Name,Zone Name,Zone Floor Area {m2},# Zone Occupants,Equipment Level {W},Equipment/Floor Area {W/m2},Equipment per person {W/person},Fraction Latent,Fraction Radiant,Fraction Lost,Fraction Convected,End-Use SubCategory,Nominal Minimum Equipment Level {W},Nominal Maximum Equipment Level {W}
 ElectricEquipment Internal Gains Nominal, F1 BUSINESS CENTER RECEPTICLE LOADS,RETAILRECEPTACLE,THERMAL ZONE: F1 BUSINESS CENTER,33.45,12.0,360.000,10.764,29.999,0.000,0.200,0.000,0.800,Receptacle,0.000,360.000
 ElectricEquipment Internal Gains Nominal, F1 ELEVATOR CORE RECEPTICLE LOADS,RETAILRECEPTACLE,THERMAL ZONE: F1 CORRIDOR,178.37,9.3,75.000,0.420,8.032,0.000,0.200,0.000,0.800,Receptacle,0.000,75.000
 ElectricEquipment Internal Gains Nominal, F1 ELEVATOR N RECEPTICLE LOADS,RETAILRECEPTACLE,THERMAL ZONE: F1 CORRIDOR,178.37,9.3,75.000,0.420,8.032,0.000,0.200,0.000,0.800,Receptacle,0.000,75.000
 ElectricEquipment Internal Gains Nominal, F1 ELEVATOR S RECEPTICLE LOADS,RETAILRECEPTACLE,THERMAL ZONE: F1 CORRIDOR,178.37,9.3,75.000,0.420,8.032,0.000,0.200,0.000,0.800,Receptacle,0.000,75.000
 ElectricEquipment Internal Gains Nominal, F1 FITNESS CENTER RECEPTICLE LOADS,RETAILRECEPTACLE,THERMAL ZONE: F1 FITNESS CENTER,83.61,9.0,450.000,5.382,50.000,0.000,0.200,0.000,0.800,Receptacle,0.000,450.000
 ElectricEquipment Internal Gains Nominal, F1 LEASING OFFICE RECEPTICLE LOADS,RETAILRECEPTACLE,THERMAL ZONE: F1 LEASING OFFICE,32.05,1.7,517.500,16.146,300.000,0.000,0.200,0.000,0.800,Receptacle,0.000,517.500
 ElectricEquipment Internal Gains Nominal, F1 LOUNGE RECEPTICLE LOADS,RETAILRECEPTACLE,THERMAL ZONE: F1 LOUNGE,97.55,35.0,1050.000,10.764,29.999,0.000,0.200,0.000,0.800,Receptacle,0.000,1050.000
 ElectricEquipment Internal Gains Nominal, F1 MECHANICAL ROOM RECEPTICLE LOADS,RETAILRECEPTACLE,THERMAL ZONE: F1 MECHANICAL ROOM,40.13,0.6,1296.000,32.292,2000.000,0.000,0.200,0.000,0.800,Receptacle,0.000,1296.000
 ElectricEquipment Internal Gains Nominal, F1 RETAIL N CORE RECEPTICLE LOADS,RETAILRECEPTACLE,THERMAL ZONE: F1 RETAIL N-NW,556.02,49.9,1665.000,2.994,33.377,0.000,0.200,0.000,0.800,Receptacle,0.000,1665.000
 ElectricEquipment Internal Gains Nominal, F1 RETAIL NW INNER CORE RECEPTICLE LOADS,RETAILRECEPTACLE,THERMAL ZONE: F1 RETAIL N-NW,556.02,49.9,1440.000,2.590,28.866,0.000,0.200,0.000,0.800,Receptacle,0.000,1440.000
 ElectricEquipment Internal Gains Nominal, F1 RETAIL NW OUTER CORE RECEPTICLE LOADS,RETAILRECEPTACLE,THERMAL ZONE: F1 RETAIL N-NW,556.02,49.9,1440.000,2.590,28.866,0.000,0.200,0.000,0.800,Receptacle,0.000,1440.000
 ElectricEquipment Internal Gains Nominal, F1 RETAIL NW OUTER RECEPTICLE LOADS,RETAILRECEPTACLE,THERMAL ZONE: F1 RETAIL N-NW,556.02,49.9,1440.000,2.590,28.866,0.000,0.200,0.000,0.800,Receptacle,0.000,1440.000
 ElectricEquipment Internal Gains Nominal, F1 RETAIL NE CORE RECEPTICLE LOADS,RETAILRECEPTACLE,THERMAL ZONE: F1 RETAIL NE,401.34,36.0,1440.000,3.588,39.992,0.000,0.200,0.000,0.800,Receptacle,0.000,1440.000
 ElectricEquipment Internal Gains Nominal, F1 RETAIL NE INNER RECEPTICLE LOADS,RETAILRECEPTACLE,THERMAL ZONE: F1 RETAIL NE,401.34,36.0,1440.000,3.588,39.992,0.000,0.200,0.000,0.800,Receptacle,0.000,1440.000
 ElectricEquipment Internal Gains Nominal, F1 RETAIL NE OUTER RECEPTICLE LOADS,RETAILRECEPTACLE,THERMAL ZONE: F1 RETAIL NE,401.34,36.0,1440.000,3.588,39.992,0.000,0.200,0.000,0.800,Receptacle,0.000,1440.000
 ElectricEquipment Internal Gains Nominal, F1 RETAIL SE BOTTOM RECEPTICLE LOADS,RETAILRECEPTACLE,THERMAL ZONE: F1 RETAIL SE,267.56,24.0,1440.000,5.382,59.988,0.000,0.200,0.000,0.800,Receptacle,0.000,1440.000
 ElectricEquipment Internal Gains Nominal, F1 RETAIL SE TOP RECEPTICLE LOADS,RETAILRECEPTACLE,THERMAL ZONE: F1 RETAIL SE,267.56,24.0,1440.000,5.382,59.988,0.000,0.200,0.000,0.800,Receptacle,0.000,1440.000
 ElectricEquipment Internal Gains Nominal, F1 RETAIL SW BOTTOM RECEPTICLE LOADS,RETAILRECEPTACLE,THERMAL ZONE: F1 RETAIL SW,411.37,36.9,1440.000,3.500,39.017,0.000,0.200,0.000,0.800,Receptacle,0.000,1440.000
 ElectricEquipment Internal Gains Nominal, F1 RETAIL SW CORE RECEPTICLE LOADS,RETAILRECEPTACLE,THERMAL ZONE: F1 RETAIL SW,411.37,36.9,1440.000,3.500,39.017,0.000,0.200,0.000,0.800,Receptacle,0.000,1440.000
 ElectricEquipment Internal Gains Nominal, F1 RETAIL SW TOP RECEPTICLE LOADS,RETAILRECEPTACLE,THERMAL ZONE: F1 RETAIL SW,411.37,36.9,1548.000,3.763,41.943,0.000,0.200,0.000,0.800,Receptacle,0.000,1548.000
 ElectricEquipment Internal Gains Nominal, F2-4 1-BED CORE NE RECEPTICLE LOADS,RESIDENTIALLIVINGRECEPTACLE,THERMAL ZONE: F2-4 1-BED CORE EAST,133.78,4.0,360.000,2.691,90.000,0.000,0.200,0.000,0.800,Receptacle,0.000,360.000
 ElectricEquipment Internal Gains Nominal, F2-4 1-BED CORE SE RECEPTICLE LOADS,RESIDENTIALLIVINGRECEPTACLE,THERMAL ZONE: F2-4 1-BED CORE EAST,133.78,4.0,360.000,2.691,90.000,0.000,0.200,0.000,0.800,Receptacle,0.000,360.000
 ElectricEquipment Internal Gains Nominal, F2-4 1-BED CORE N RECEPTICLE LOADS,RESIDENTIALLIVINGRECEPTACLE,THERMAL ZONE: F2-4 1-BED CORE N,66.89,2.0,360.000,5.382,180.000,0.000,0.200,0.000,0.800,Receptacle,0.000,360.000
 ElectricEquipment Internal Gains Nominal, F2-4 1-BED CORE NW RECEPTICLE LOADS,RESIDENTIALLIVINGRECEPTACLE,THERMAL ZONE: F2-4 1-BED CORE WEST,133.78,4.0,360.000,2.691,90.000,0.000,0.200,0.000,0.800,Receptacle,0.000,360.000
 ElectricEquipment Internal Gains Nominal, F2-4 1-BED CORE SW RECEPTICLE LOADS,RESIDENTIALLIVINGRECEPTACLE,THERMAL ZONE: F2-4 1-BED CORE WEST,133.78,4.0,360.000,2.691,90.000,0.000,0.200,0.000,0.800,Receptacle,0.000,360.000
 ElectricEquipment Internal Gains Nominal, F2-4 1-BED N RECEPTICLE LOADS,RESIDENTIALLIVINGRECEPTACLE,THERMAL ZONE: F2-4 1-BED NORTH,345.60,10.0,372.000,1.076,37.200,0.000,0.200,0.000,0.800,Receptacle,0.000,372.000
 ElectricEquipment Internal Gains Nominal, F2-4 1-BED NE CORE RECEPTICLE LOADS,RESIDENTIALLIVINGRECEPTACLE,THERMAL ZONE: F2-4 1-BED NORTH,345.60,10.0,372.000,1.076,37.200,0.000,0.200,0.000,0.800,Receptacle,0.000,372.000
 ElectricEquipment Internal Gains Nominal, F2-4 1-BED NE OUTER RECEPTICLE LOADS,RESIDENTIALLIVINGRECEPTACLE,THERMAL ZONE: F2-4 1-BED NORTH,345.60,10.0,372.000,1.076,37.200,0.000,0.200,0.000,0.800,Receptacle,0.000,372.000
 ElectricEquipment Internal Gains Nominal, F2-4 1-BED NW CORE RECEPTICLE LOADS,RESIDENTIALLIVINGRECEPTACLE,THERMAL ZONE: F2-4 1-BED NORTH,345.60,10.0,372.000,1.076,37.200,0.000,0.200,0.000,0.800,Receptacle,0.000,372.000
 ElectricEquipment Internal Gains Nominal, F2-4 1-BED NW OUTER RECEPTICLE LOADS,RESIDENTIALLIVINGRECEPTACLE,THERMAL ZONE: F2-4 1-BED NORTH,345.60,10.0,372.000,1.076,37.200,0.000,0.200,0.000,0.800,Receptacle,0.000,372.000
 ElectricEquipment Internal Gains Nominal, F2-4 2-BED CORE NE RECEPTICLE LOADS,RESIDENTIALLIVINGRECEPTACLE,THERMAL ZONE: F2-4 2-BED CORE NE-NW,200.67,6.0,540.000,2.691,90.000,0.000,0.200,0.000,0.800,Receptacle,0.000,540.000
 ElectricEquipment Internal Gains Nominal, F2-4 2-BED CORE NW RECEPTICLE LOADS,RESIDENTIALLIVINGRECEPTACLE,THERMAL ZONE: F2-4 2-BED CORE NE-NW,200.67,6.0,540.000,2.691,90.000,0.000,0.200,0.000,0.800,Receptacle,0.000,540.000
 ElectricEquipment Internal Gains Nominal, F2-4 2-BED NE RECEPTICLE LOADS,RESIDENTIALLIVINGRECEPTACLE,THERMAL ZONE: F2-4 2-BED EAST,301.01,9.0,540.000,1.794,60.000,0.000,0.200,0.000,0.800,Receptacle,0.000,540.000
 ElectricEquipment Internal Gains Nominal, F2-4 2-BED SE CORE RECEPTICLE LOADS,RESIDENTIALLIVINGRECEPTACLE,THERMAL ZONE: F2-4 2-BED EAST,301.01,9.0,540.000,1.794,60.000,0.000,0.200,0.000,0.800,Receptacle,0.000,540.000
 ElectricEquipment Internal Gains Nominal, F2-4 2-BED SE RECEPTICLE LOADS,RESIDENTIALLIVINGRECEPTACLE,THERMAL ZONE: F2-4 2-BED EAST,301.01,9.0,540.000,1.794,60.000,0.000,0.200,0.000,0.800,Receptacle,0.000,540.000
 ElectricEquipment Internal Gains Nominal, F2-4 2-BED NW RECEPTICLE LOADS,RESIDENTIALLIVINGRECEPTACLE,THERMAL ZONE: F2-4 2-BED WEST,301.01,9.0,540.000,1.794,60.000,0.000,0.200,0.000,0.800,Receptacle,0.000,540.000
 ElectricEquipment Internal Gains Nominal, F2-4 2-BED SW CORE RECEPTICLE LOADS,RESIDENTIALLIVINGRECEPTACLE,THERMAL ZONE: F2-4 2-BED WEST,301.01,9.0,540.000,1.794,60.000,0.000,0.200,0.000,0.800,Receptacle,0.000,540.000
 ElectricEquipment Internal Gains Nominal, F2-4 2-BED SW RECEPTICLE LOADS,RESIDENTIALLIVINGRECEPTACLE,THERMAL ZONE: F2-4 2-BED WEST,301.01,9.0,540.000,1.794,60.000,0.000,0.200,0.000,0.800,Receptacle,0.000,540.000
 ElectricEquipment Internal Gains Nominal, F2-4 3-BED NE RECEPTICLE LOADS,RESIDENTIALLIVINGRECEPTACLE,THERMAL ZONE: F2-4 3-BED NE,130.99,4.0,705.000,5.382,176.250,0.000,0.200,0.000,0.800,Receptacle,0.000,705.000
 ElectricEquipment Internal Gains Nominal, F2-4 3-BED NW RECEPTICLE LOADS,RESIDENTIALLIVINGRECEPTACLE,THERMAL ZONE: F2-4 3-BED NW,130.99,4.0,705.000,5.382,176.250,0.000,0.200,0.000,0.800,Receptacle,0.000,705.000
 ElectricEquipment Internal Gains Nominal, F2-4 ELEVATOR CORE RECEPTICLE LOADS,OFFICERECEPTACLE,THERMAL ZONE: F2-4 CORRIDOR,256.41,13.5,75.000,0.292,5.540,0.000,0.200,0.000,0.800,Receptacle,0.000,75.000
 ElectricEquipment Internal Gains Nominal, F2-4 ELEVATOR N RECEPTICLE LOADS,OFFICERECEPTACLE,THERMAL ZONE: F2-4 CORRIDOR,256.41,13.5,75.000,0.292,5.540,0.000,0.200,0.000,0.800,Receptacle,0.000,75.000
 ElectricEquipment Internal Gains Nominal, F2-4 ELEVATOR S RECEPTICLE LOADS,OFFICERECEPTACLE,THERMAL ZONE: F2-4 CORRIDOR,256.41,13.5,75.000,0.292,5.540,0.000,0.200,0.000,0.800,Receptacle,0.000,75.000
 ElectricEquipment Internal Gains Nominal, F2-4 LAUNDRY RECEPTICLE LOADS,OFFICERECEPTACLE,THERMAL ZONE: F2-4 CORRIDOR,256.41,13.5,540.000,2.106,39.889,0.000,0.200,0.000,0.800,Receptacle,0.000,540.000
 ElectricEquipment Internal Gains Nominal, F2-4 STUDIO SE RECEPTICLE LOADS,RESIDENTIALLIVINGRECEPTACLE,THERMAL ZONE: F2-4 STUDIO SE,50.17,2.0,270.000,5.382,135.000,0.000,0.200,0.000,0.800,Receptacle,0.000,270.000
 ElectricEquipment Internal Gains Nominal, F2-4 STUDIO SW RECEPTICLE LOADS,RESIDENTIALLIVINGRECEPTACLE,THERMAL ZONE: F2-4 STUDIO SW,50.17,2.0,270.000,5.382,135.000,0.000,0.200,0.000,0.800,Receptacle,0.000,270.000
 ElectricEquipment Internal Gains Nominal, F5 1-BED CORE NE RECEPTICLE LOADS,RESIDENTIALLIVINGRECEPTACLE,THERMAL ZONE: F5 1-BED CORE EAST,133.78,4.0,360.000,2.691,90.000,0.000,0.200,0.000,0.800,Receptacle,0.000,360.000
 ElectricEquipment Internal Gains Nominal, F5 1-BED CORE SE RECEPTICLE LOADS,RESIDENTIALLIVINGRECEPTACLE,THERMAL ZONE: F5 1-BED CORE EAST,133.78,4.0,360.000,2.691,90.000,0.000,0.200,0.000,0.800,Receptacle,0.000,360.000
 ElectricEquipment Internal Gains Nominal, F5 1-BED CORE N RECEPTICLE LOADS,RESIDENTIALLIVINGRECEPTACLE,THERMAL ZONE: F5 1-BED CORE N,66.89,2.0,360.000,5.382,180.000,0.000,0.200,0.000,0.800,Receptacle,0.000,360.000
 ElectricEquipment Internal Gains Nominal, F5 1-BED CORE NW RECEPTICLE LOADS,RESIDENTIALLIVINGRECEPTACLE,THERMAL ZONE: F5 1-BED CORE WEST,133.78,4.0,360.000,2.691,90.000,0.000,0.200,0.000,0.800,Receptacle,0.000,360.000
 ElectricEquipment Internal Gains Nominal, F5 1-BED CORE SW RECEPTICLE LOADS,RESIDENTIALLIVINGRECEPTACLE,THERMAL ZONE: F5 1-BED CORE WEST,133.78,4.0,360.000,2.691,90.000,0.000,0.200,0.000,0.800,Receptacle,0.000,360.000
 ElectricEquipment Internal Gains Nominal, F5 1-BED N RECEPTICLE LOADS,RESIDENTIALLIVINGRECEPTACLE,THERMAL ZONE: F5 1-BED NORTH,345.60,10.0,372.000,1.076,37.200,0.000,0.200,0.000,0.800,Receptacle,0.000,372.000
 ElectricEquipment Internal Gains Nominal, F5 1-BED NE CORE RECEPTICLE LOADS,RESIDENTIALLIVINGRECEPTACLE,THERMAL ZONE: F5 1-BED NORTH,345.60,10.0,372.000,1.076,37.200,0.000,0.200,0.000,0.800,Receptacle,0.000,372.000
 ElectricEquipment Internal Gains Nominal, F5 1-BED NE OUTER RECEPTICLE LOADS,RESIDENTIALLIVINGRECEPTACLE,THERMAL ZONE: F5 1-BED NORTH,345.60,10.0,372.000,1.076,37.200,0.000,0.200,0.000,0.800,Receptacle,0.000,372.000
 ElectricEquipment Internal Gains Nominal, F5 1-BED NW CORE RECEPTICLE LOADS,RESIDENTIALLIVINGRECEPTACLE,THERMAL ZONE: F5 1-BED NORTH,345.60,10.0,372.000,1.076,37.200,0.000,0.200,0.000,0.800,Receptacle,0.000,372.000
 ElectricEquipment Internal Gains Nominal, F5 1-BED NW OUTER RECEPTICLE LOADS,RESIDENTIALLIVINGRECEPTACLE,THERMAL ZONE: F5 1-BED NORTH,345.60,10.0,372.000,1.076,37.200,0.000,0.200,0.000,0.800,Receptacle,0.000,372.000
 ElectricEquipment Internal Gains Nominal, F5 2-BED CORE NE RECEPTICLE LOADS,RESIDENTIALLIVINGRECEPTACLE,THERMAL ZONE: F5 2-BED CORE NE-NW,200.67,6.0,540.000,2.691,90.000,0.000,0.200,0.000,0.800,Receptacle,0.000,540.000
 ElectricEquipment Internal Gains Nominal, F5 2-BED CORE NW RECEPTICLE LOADS,RESIDENTIALLIVINGRECEPTACLE,THERMAL ZONE: F5 2-BED CORE NE-NW,200.67,6.0,540.000,2.691,90.000,0.000,0.200,0.000,0.800,Receptacle,0.000,540.000
 ElectricEquipment Internal Gains Nominal, F5 2-BED NE RECEPTICLE LOADS,RESIDENTIALLIVINGRECEPTACLE,THERMAL ZONE: F5 2-BED EAST,301.01,9.0,540.000,1.794,60.000,0.000,0.200,0.000,0.800,Receptacle,0.000,540.000
 ElectricEquipment Internal Gains Nominal, F5 2-BED SE CORE RECEPTICLE LOADS,RESIDENTIALLIVINGRECEPTACLE,THERMAL ZONE: F5 2-BED EAST,301.01,9.0,540.000,1.794,60.000,0.000,0.200,0.000,0.800,Receptacle,0.000,540.000
 ElectricEquipment Internal Gains Nominal, F5 2-BED SE RECEPTICLE LOADS,RESIDENTIALLIVINGRECEPTACLE,THERMAL ZONE: F5 2-BED EAST,301.01,9.0,540.000,1.794,60.000,0.000,0.200,0.000,0.800,Receptacle,0.000,540.000
 ElectricEquipment Internal Gains Nominal, F5 2-BED NW RECEPTICLE LOADS,RESIDENTIALLIVINGRECEPTACLE,THERMAL ZONE: F5 2-BED WEST,301.01,9.0,540.000,1.794,60.000,0.000,0.200,0.000,0.800,Receptacle,0.000,540.000
 ElectricEquipment Internal Gains Nominal, F5 2-BED SW CORE RECEPTICLE LOADS,RESIDENTIALLIVINGRECEPTACLE,THERMAL ZONE: F5 2-BED WEST,301.01,9.0,540.000,1.794,60.000,0.000,0.200,0.000,0.800,Receptacle,0.000,540.000
 ElectricEquipment Internal Gains Nominal, F5 2-BED SW RECEPTICLE LOADS,RESIDENTIALLIVINGRECEPTACLE,THERMAL ZONE: F5 2-BED WEST,301.01,9.0,540.000,1.794,60.000,0.000,0.200,0.000,0.800,Receptacle,0.000,540.000
 ElectricEquipment Internal Gains Nominal, F5 3-BED NE RECEPTICLE LOADS,RESIDENTIALLIVINGRECEPTACLE,THERMAL ZONE: F5 3-BED NE,130.99,4.0,705.000,5.382,176.250,0.000,0.200,0.000,0.800,Receptacle,0.000,705.000
 ElectricEquipment Internal Gains Nominal, F5 3-BED NW RECEPTICLE LOADS,RESIDENTIALLIVINGRECEPTACLE,THERMAL ZONE: F5 3-BED NW,130.99,4.0,705.000,5.382,176.250,0.000,0.200,0.000,0.800,Receptacle,0.000,705.000
 ElectricEquipment Internal Gains Nominal, F5 ELEVATOR CORE RECEPTICLE LOADS,OFFICERECEPTACLE,THERMAL ZONE: F5 CORRIDOR,256.41,13.5,75.000,0.292,5.540,0.000,0.200,0.000,0.800,Receptacle,0.000,75.000
 ElectricEquipment Internal Gains Nominal, F5 ELEVATOR N RECEPTICLE LOADS,OFFICERECEPTACLE,THERMAL ZONE: F5 CORRIDOR,256.41,13.5,75.000,0.292,5.540,0.000,0.200,0.000,0.800,Receptacle,0.000,75.000
 ElectricEquipment Internal Gains Nominal, F5 ELEVATOR S RECEPTICLE LOADS,OFFICERECEPTACLE,THERMAL ZONE: F5 CORRIDOR,256.41,13.5,75.000,0.292,5.540,0.000,0.200,0.000,0.800,Receptacle,0.000,75.000
 ElectricEquipment Internal Gains Nominal, F5 LAUNDRY RECEPTICLE LOADS,OFFICERECEPTACLE,THERMAL ZONE: F5 CORRIDOR,256.41,13.5,540.000,2.106,39.889,0.000,0.200,0.000,0.800,Receptacle,0.000,540.000
 ElectricEquipment Internal Gains Nominal, F5 STUDIO SE RECEPTICLE LOADS,RESIDENTIALLIVINGRECEPTACLE,THERMAL ZONE: F5 STUDIO SE,50.17,2.0,270.000,5.382,135.000,0.000,0.200,0.000,0.800,Receptacle,0.000,270.000
 ElectricEquipment Internal Gains Nominal, F5 STUDIO SW RECEPTICLE LOADS,RESIDENTIALLIVINGRECEPTACLE,THERMAL ZONE: F5 STUDIO SW,50.17,2.0,270.000,5.382,135.000,0.000,0.200,0.000,0.800,Receptacle,0.000,270.000
! <GasEquipment Internal Gains Nominal>,Name,Schedule Name,Zone Name,Zone Floor Area {m2},# Zone Occupants,Equipment Level {W},Equipment/Floor Area {W/m2},Equipment per person {W/person},Fraction Latent,Fraction Radiant,Fraction Lost,Fraction Convected,End-Use SubCategory,Nominal Minimum Equipment Level {W},Nominal Maximum Equipment Level {W}
 GasEquipment Internal Gains Nominal, F2-4 1-BED CORE NE GAS EQUIPMENT LOADS,RESIDENTIALLIVINGGASEQUIP,THERMAL ZONE: F2-4 1-BED CORE EAST,133.78,4.0,143.994,1.076,35.998,0.000,0.150,0.850,0.000,Receptacle,0.000,143.994
 GasEquipment Internal Gains Nominal, F2-4 1-BED CORE SE GAS EQUIPMENT LOADS,RESIDENTIALLIVINGGASEQUIP,THERMAL ZONE: F2-4 1-BED CORE EAST,133.78,4.0,143.994,1.076,35.998,0.000,0.150,0.850,0.000,Receptacle,0.000,143.994
 GasEquipment Internal Gains Nominal, F2-4 1-BED CORE N GAS EQUIPMENT LOADS,RESIDENTIALLIVINGGASEQUIP,THERMAL ZONE: F2-4 1-BED CORE N,66.89,2.0,143.994,2.153,71.997,0.000,0.150,0.850,0.000,Receptacle,0.000,143.994
 GasEquipment Internal Gains Nominal, F2-4 1-BED CORE NW GAS EQUIPMENT LOADS,RESIDENTIALLIVINGGASEQUIP,THERMAL ZONE: F2-4 1-BED CORE WEST,133.78,4.0,143.994,1.076,35.998,0.000,0.150,0.850,0.000,Receptacle,0.000,143.994
 GasEquipment Internal Gains Nominal, F2-4 1-BED CORE SW GAS EQUIPMENT LOADS,RESIDENTIALLIVINGGASEQUIP,THERMAL ZONE: F2-4 1-BED CORE WEST,133.78,4.0,143.994,1.076,35.998,0.000,0.150,0.850,0.000,Receptacle,0.000,143.994
 GasEquipment Internal Gains Nominal, F2-4 1-BED N GAS EQUIPMENT LOADS,RESIDENTIALLIVINGGASEQUIP,THERMAL ZONE: F2-4 1-BED NORTH,345.60,10.0,148.794,0.431,14.879,0.000,0.150,0.850,0.000,Receptacle,0.000,148.794
 GasEquipment Internal Gains Nominal, F2-4 1-BED NE CORE GAS EQUIPMENT LOADS,RESIDENTIALLIVINGGASEQUIP,THERMAL ZONE: F2-4 1-BED NORTH,345.60,10.0,148.794,0.431,14.879,0.000,0.150,0.850,0.000,Receptacle,0.000,148.794
 GasEquipment Internal Gains Nominal, F2-4 1-BED NE OUTER GAS EQUIPMENT LOADS,RESIDENTIALLIVINGGASEQUIP,THERMAL ZONE: F2-4 1-BED NORTH,345.60,10.0,148.794,0.431,14.879,0.000,0.150,0.850,0.000,Receptacle,0.000,148.794
 GasEquipment Internal Gains Nominal, F2-4 1-BED NW CORE GAS EQUIPMENT LOADS,RESIDENTIALLIVINGGASEQUIP,THERMAL ZONE: F2-4 1-BED NORTH,345.60,10.0,148.794,0.431,14.879,0.000,0.150,0.850,0.000,Receptacle,0.000,148.794
 GasEquipment Internal Gains Nominal, F2-4 1-BED NW OUTER GAS EQUIPMENT LOADS,RESIDENTIALLIVINGGASEQUIP,THERMAL ZONE: F2-4 1-BED NORTH,345.60,10.0,148.794,0.431,14.879,0.000,0.150,0.850,0.000,Receptacle,0.000,148.794
 GasEquipment Internal Gains Nominal, F2-4 2-BED CORE NE GAS EQUIPMENT LOADS,RESIDENTIALLIVINGGASEQUIP,THERMAL ZONE: F2-4 2-BED CORE NE-NW,200.67,6.0,215.991,1.076,35.998,0.000,0.150,0.850,0.000,Receptacle,0.000,215.991
 GasEquipment Internal Gains Nominal, F2-4 2-BED CORE NW GAS EQUIPMENT LOADS,RESIDENTIALLIVINGGASEQUIP,THERMAL ZONE: F2-4 2-BED CORE NE-NW,200.67,6.0,215.991,1.076,35.998,0.000,0.150,0.850,0.000,Receptacle,0.000,215.991
 GasEquipment Internal Gains Nominal, F2-4 2-BED NE GAS EQUIPMENT LOADS,RESIDENTIALLIVINGGASEQUIP,THERMAL ZONE: F2-4 2-BED EAST,301.01,9.0,215.991,0.718,23.999,0.000,0.150,0.850,0.000,Receptacle,0.000,215.991
 GasEquipment Internal Gains Nominal, F2-4 2-BED SE CORE GAS EQUIPMENT LOADS,RESIDENTIALLIVINGGASEQUIP,THERMAL ZONE: F2-4 2-BED EAST,301.01,9.0,215.991,0.718,23.999,0.000,0.150,0.850,0.000,Receptacle,0.000,215.991
 GasEquipment Internal Gains Nominal, F2-4 2-BED SE GAS EQUIPMENT LOADS,RESIDENTIALLIVINGGASEQUIP,THERMAL ZONE: F2-4 2-BED EAST,301.01,9.0,215.991,0.718,23.999,0.000,0.150,0.850,0.000,Receptacle,0.000,215.991
 GasEquipment Internal Gains Nominal, F2-4 2-BED NW GAS EQUIPMENT LOADS,RESIDENTIALLIVINGGASEQUIP,THERMAL ZONE: F2-4 2-BED WEST,301.01,9.0,215.991,0.718,23.999,0.000,0.150,0.850,0.000,Receptacle,0.000,215.991
 GasEquipment Internal Gains Nominal, F2-4 2-BED SW CORE GAS EQUIPMENT LOADS,RESIDENTIALLIVINGGASEQUIP,THERMAL ZONE: F2-4 2-BED WEST,301.01,9.0,215.991,0.718,23.999,0.000,0.150,0.850,0.000,Receptacle,0.000,215.991
 GasEquipment Internal Gains Nominal, F2-4 2-BED SW GAS EQUIPMENT LOADS,RESIDENTIALLIVINGGASEQUIP,THERMAL ZONE: F2-4 2-BED WEST,301.01,9.0,215.991,0.718,23.999,0.000,0.150,0.850,0.000,Receptacle,0.000,215.991
 GasEquipment Internal Gains Nominal, F2-4 3-BED NE GAS EQUIPMENT LOADS,RESIDENTIALLIVINGGASEQUIP,THERMAL ZONE: F2-4 3-BED NE,130.99,4.0,281.988,2.153,70.497,0.000,0.150,0.850,0.000,Receptacle,0.000,281.988
 GasEquipment Internal Gains Nominal, F2-4 3-BED NW GAS EQUIPMENT LOADS,RESIDENTIALLIVINGGASEQUIP,THERMAL ZONE: F2-4 3-BED NW,130.99,4.0,281.988,2.153,70.497,0.000,0.150,0.850,0.000,Receptacle,0.000,281.988
 GasEquipment Internal Gains Nominal, F2-4 LAUNDRY GAS EQUIPMENT LOADS,OFFICEGASEQUIP,THERMAL ZONE: F2-4 CORRIDOR,256.41,13.5,39.598,0.154,2.925,0.000,0.150,0.850,0.000,Receptacle,0.000,39.598
 GasEquipment Internal Gains Nominal, F2-4 STUDIO SE GAS EQUIPMENT LOADS,RESIDENTIALLIVINGGASEQUIP,THERMAL ZONE: F2-4 STUDIO SE,50.17,2.0,107.996,2.153,53.998,0.000,0.150,0.850,0.000,Receptacle,0.000,107.996
 GasEquipment Internal Gains Nominal, F2-4 STUDIO SW GAS EQUIPMENT LOADS,RESIDENTIALLIVINGGASEQUIP,THERMAL ZONE: F2-4 STUDIO SW,50.17,2.0,107.996,2.153,53.998,0.000,0.150,0.850,0.000,Receptacle,0.000,107.996
 GasEquipment Internal Gains Nominal, F5 1-BED CORE NE GAS EQUIPMENT LOADS,RESIDENTIALLIVINGGASEQUIP,THERMAL ZONE: F5 1-BED CORE EAST,133.78,4.0,143.994,1.076,35.998,0.000,0.150,0.850,0.000,Receptacle,0.000,143.994
 GasEquipment Internal Gains Nominal, F5 1-BED CORE SE GAS EQUIPMENT LOADS,RESIDENTIALLIVINGGASEQUIP,THERMAL ZONE: F5 1-BED CORE EAST,133.78,4.0,143.994,1.076,35.998,0.000,0.150,0.850,0.000,Receptacle,0.000,143.994
 GasEquipment Internal Gains Nominal, F5 1-BED CORE N GAS EQUIPMENT LOADS,RESIDENTIALLIVINGGASEQUIP,THERMAL ZONE: F5 1-BED CORE N,66.89,2.0,143.994,2.153,71.997,0.000,0.150,0.850,0.000,Receptacle,0.000,143.994
 GasEquipment Internal Gains Nominal, F5 1-BED CORE NW GAS EQUIPMENT LOADS,RESIDENTIALLIVINGGASEQUIP,THERMAL ZONE: F5 1-BED CORE WEST,133.78,4.0,143.994,1.076,35.998,0.000,0.150,0.850,0.000,Receptacle,0.000,143.994
 GasEquipment Internal Gains Nominal, F5 1-BED CORE SW GAS EQUIPMENT LOADS,RESIDENTIALLIVINGGASEQUIP,THERMAL ZONE: F5 1-BED CORE WEST,133.78,4.0,143.994,1.076,35.998,0.000,0.150,0.850,0.000,Receptacle,0.000,143.994
 GasEquipment Internal Gains Nominal, F5 1-BED N GAS EQUIPMENT LOADS,RESIDENTIALLIVINGGASEQUIP,THERMAL ZONE: F5 1-BED NORTH,345.60,10.0,148.794,0.431,14.879,0.000,0.150,0.850,0.000,Receptacle,0.000,148.794
 GasEquipment Internal Gains Nominal, F5 1-BED NE CORE GAS EQUIPMENT LOADS,RESIDENTIALLIVINGGASEQUIP,THERMAL ZONE: F5 1-BED NORTH,345.60,10.0,148.794,0.431,14.879,0.000,0.150,0.850,0.000,Receptacle,0.000,148.794
 GasEquipment Internal Gains Nominal, F5 1-BED NE OUTER GAS EQUIPMENT LOADS,RESIDENTIALLIVINGGASEQUIP,THERMAL ZONE: F5 1-BED NORTH,345.60,10.0,148.794,0.431,14.879,0.000,0.150,0.850,0.000,Receptacle,0.000,148.794
 GasEquipment Internal Gains Nominal, F5 1-BED NW CORE GAS EQUIPMENT LOADS,RESIDENTIALLIVINGGASEQUIP,THERMAL ZONE: F5 1-BED NORTH,345.60,10.0,148.794,0.431,14.879,0.000,0.150,0.850,0.000,Receptacle,0.000,148.794
 GasEquipment Internal Gains Nominal, F5 1-BED NW OUTER GAS EQUIPMENT LOADS,RESIDENTIALLIVINGGASEQUIP,THERMAL ZONE: F5 1-BED NORTH,345.60,10.0,148.794,0.431,14.879,0.000,0.150,0.850,0.000,Receptacle,0.000,148.794
 GasEquipment Internal Gains Nominal, F5 2-BED CORE NE GAS EQUIPMENT LOADS,RESIDENTIALLIVINGGASEQUIP,THERMAL ZONE: F5 2-BED CORE NE-NW,200.67,6.0,215.991,1.076,35.998,0.000,0.150,0.850,0.000,Receptacle,0.000,215.991
 GasEquipment Internal Gains Nominal, F5 2-BED CORE NW GAS EQUIPMENT LOADS,RESIDENTIALLIVINGGASEQUIP,THERMAL ZONE: F5 2-BED CORE NE-NW,200.67,6.0,215.991,1.076,35.998,0.000,0.150,0.850,0.000,Receptacle,0.000,215.991
 GasEquipment Internal Gains Nominal, F5 2-BED NE GAS EQUIPMENT LOADS,RESIDENTIALLIVINGGASEQUIP,THERMAL ZONE: F5 2-BED EAST,301.01,9.0,215.991,0.718,23.999,0.000,0.150,0.850,0.000,Receptacle,0.000,215.991
 GasEquipment Internal Gains Nominal, F5 2-BED SE CORE GAS EQUIPMENT LOADS,RESIDENTIALLIVINGGASEQUIP,THERMAL ZONE: F5 2-BED EAST,301.01,9.0,215.991,0.718,23.999,0.000,0.150,0.850,0.000,Receptacle,0.000,215.991
 GasEquipment Internal Gains Nominal, F5 2-BED SE GAS EQUIPMENT LOADS,RESIDENTIALLIVINGGASEQUIP,THERMAL ZONE: F5 2-BED EAST,301.01,9.0,215.991,0.718,23.999,0.000,0.150,0.850,0.000,Receptacle,0.000,215.991
 GasEquipment Internal Gains Nominal, F5 2-BED NW GAS EQUIPMENT LOADS,RESIDENTIALLIVINGGASEQUIP,THERMAL ZONE: F5 2-BED WEST,301.01,9.0,215.991,0.718,23.999,0.000,0.150,0.850,0.000,Receptacle,0.000,215.991
 GasEquipment Internal Gains Nominal, F5 2-BED SW CORE GAS EQUIPMENT LOADS,RESIDENTIALLIVINGGASEQUIP,THERMAL ZONE: F5 2-BED WEST,301.01,9.0,215.991,0.718,23.999,0.000,0.150,0.850,0.000,Receptacle,0.000,215.991
 GasEquipment Internal Gains Nominal, F5 2-BED SW GAS EQUIPMENT LOADS,RESIDENTIALLIVINGGASEQUIP,THERMAL ZONE: F5 2-BED WEST,301.01,9.0,215.991,0.718,23.999,0.000,0.150,0.850,0.000,Receptacle,0.000,215.991
 GasEquipment Internal Gains Nominal, F5 3-BED NE GAS EQUIPMENT LOADS,RESIDENTIALLIVINGGASEQUIP,THERMAL ZONE: F5 3-BED NE,130.99,4.0,281.988,2.153,70.497,0.000,0.150,0.850,0.000,Receptacle,0.000,281.988
 GasEquipment Internal Gains Nominal, F5 3-BED NW GAS EQUIPMENT LOADS,RESIDENTIALLIVINGGASEQUIP,THERMAL ZONE: F5 3-BED NW,130.99,4.0,281.988,2.153,70.497,0.000,0.150,0.850,0.000,Receptacle,0.000,281.988
 GasEquipment Internal Gains Nominal, F5 LAUNDRY GAS EQUIPMENT LOADS,OFFICEGASEQUIP,THERMAL ZONE: F5 CORRIDOR,256.41,13.5,39.598,0.154,2.925,0.000,0.150,0.850,0.000,Receptacle,0.000,39.598
 GasEquipment Internal Gains Nominal, F5 STUDIO SE GAS EQUIPMENT LOADS,RESIDENTIALLIVINGGASEQUIP,THERMAL ZONE: F5 STUDIO SE,50.17,2.0,107.996,2.153,53.998,0.000,0.150,0.850,0.000,Receptacle,0.000,107.996
[...]
 Controller:MechanicalVentilation,BASESYS5 OACTRL-2 MECH VENT CONTROLLER,BASESYS5 OACTRL-2 SCHEDULE,No,ZoneSum,1.00,1,THERMAL ZONE: F2-4 CORRIDOR,THERMAL ZONE: F2-4 CORRIDOR DESIGN SPECIFICATION OUTDOOR AIR,THERMAL ZONE: F2-4 CORRIDOR DESIGN SPEC ZONE AIR DIST
 Controller:MechanicalVentilation,BASESYS5 OACTRL-3 MECH VENT CONTROLLER,BASESYS5 OACTRL-3 SCHEDULE,No,ZoneSum,1.00,1,THERMAL ZONE: F5 CORRIDOR,THERMAL ZONE: F5 CORRIDOR DESIGN SPECIFICATION OUTDOOR AIR,THERMAL ZONE: F5 CORRIDOR DESIGN SPEC ZONE AIR DIST
 Component Sizing Information, Controller:OutdoorAir, BASESYS5 OACTRL, Maximum Outdoor Air Flow Rate [m3/s], 7.97024
 Component Sizing Information, Coil:Cooling:DX:TwoSpeed, BASESYS5 COILCLG, Design Size High Speed Rated Air Flow Rate [m3/s], 7.97024
 Component Sizing Information, Coil:Cooling:DX:TwoSpeed, BASESYS5 COILCLG, User-Specified High Speed Rated Air Flow Rate [m3/s], 9.19089
 Component Sizing Information, Coil:Cooling:DX:TwoSpeed, BASESYS5 COILCLG, User-Specified High Speed Gross Rated Total Cooling Capacity [W], 175156.56273
 Component Sizing Information, Coil:Cooling:DX:TwoSpeed, BASESYS5 COILCLG, Design Size High Speed Rated Sensible Heat Ratio, 0.79235
 Component Sizing Information, Coil:Cooling:DX:TwoSpeed, BASESYS5 COILCLG, Design Size Low Speed Rated Air Flow Rate [m3/s], 3.06332
 Component Sizing Information, Coil:Cooling:DX:TwoSpeed, BASESYS5 COILCLG, User-Specified Low Speed Rated Air Flow Rate [m3/s], 4.59545
 Component Sizing Information, Coil:Cooling:DX:TwoSpeed, BASESYS5 COILCLG, Design Size Low Speed Gross Rated Total Cooling Capacity [W], 58379.68236
 Component Sizing Information, Coil:Cooling:DX:TwoSpeed, BASESYS5 COILCLG, User-Specified Low Speed Gross Rated Total Cooling Capacity [W], 87578.28136
 Component Sizing Information, Coil:Cooling:DX:TwoSpeed, BASESYS5 COILCLG, Design Size Low Speed Gross Rated Sensible Heat Ratio, 0.79235
! <VAV DX Cooling Coil Standard Rating Information>, DX Coil Type, DX Coil Name, Fan Type, Fan Name, Standard Net Cooling Capacity {W}, Standard Net Cooling Capacity {Btu/h}, IEER {Btu/W-h}, COP 100% Capacity {W/W}, COP 75% Capacity {W/W}, COP 50% Capacity {W/W}, COP 25% Capacity {W/W}, EER 100% Capacity {Btu/W-h}, EER 75% Capacity {Btu/W-h}, EER 50% Capacity {Btu/W-h}, EER 25% Capacity {Btu/W-h}, Supply Air Flow 100% {kg/s}, Supply Air Flow 75% {kg/s},Supply Air Flow 50% {kg/s},Supply Air Flow 25% {kg/s}
 VAV DX Cooling Coil Standard Rating Information, Coil:Cooling:DX:TwoSpeed,BASESYS5 COILCLG,N/A,N/A,167565.19,571756.17,10.75,2.88,3.11,3.23,3.25,9.83,10.61,11.03,11.07,10.5965,8.5008,6.0759,2.7544,
 Component Sizing Information, Coil:Heating:Water, BASESYS5 COILHTG, Design Size Rated Capacity [W], 36120.30896
 Component Sizing Information, Coil:Heating:Water, BASESYS5 COILHTG, User-Specified Rated Capacity [W], 40331.56146
 Component Sizing Information, Coil:Heating:Water, BASESYS5 COILHTG, Design Size Maximum Water Flow Rate [m3/s], 8.83049E-004
 Component Sizing Information, Coil:Heating:Water, BASESYS5 COILHTG, Design Size U-Factor Times Area Value [W/K], 806.07343
Water Heating Coil Capacity Information,Coil:Heating:Water,BASESYS5 COILHTG,40413.04
 Component Sizing Information, Fan:VariableVolume, BASESYS5 FAN, Design Size Maximum Flow Rate [m3/s], 7.97024
 Component Sizing Information, Fan:VariableVolume, BASESYS5 FAN, User-Specified Maximum Flow Rate [m3/s], 9.19089
 Component Sizing Information, Controller:OutdoorAir, BASESYS5 OACTRL-2, Maximum Outdoor Air Flow Rate [m3/s], 2.19345
 Component Sizing Information, Coil:Cooling:DX:TwoSpeed, BASESYS5 COILCLG-2, Design Size High Speed Rated Air Flow Rate [m3/s], 2.19345
 Component Sizing Information, Coil:Cooling:DX:TwoSpeed, BASESYS5 COILCLG-2, User-Specified High Speed Rated Air Flow Rate [m3/s], 2.52219
 Component Sizing Information, Coil:Cooling:DX:TwoSpeed, BASESYS5 COILCLG-2, User-Specified High Speed Gross Rated Total Cooling Capacity [W], 47542.57515
 Component Sizing Information, Coil:Cooling:DX:TwoSpeed, BASESYS5 COILCLG-2, Design Size High Speed Rated Sensible Heat Ratio, 0.79687
 Component Sizing Information, Coil:Cooling:DX:TwoSpeed, BASESYS5 COILCLG-2, Design Size Low Speed Rated Air Flow Rate [m3/s], 0.84064
 Component Sizing Information, Coil:Cooling:DX:TwoSpeed, BASESYS5 COILCLG-2, User-Specified Low Speed Rated Air Flow Rate [m3/s], 1.26109
 Component Sizing Information, Coil:Cooling:DX:TwoSpeed, BASESYS5 COILCLG-2, Design Size Low Speed Gross Rated Total Cooling Capacity [W], 15845.94030
 Component Sizing Information, Coil:Cooling:DX:TwoSpeed, BASESYS5 COILCLG-2, User-Specified Low Speed Gross Rated Total Cooling Capacity [W], 23771.28757
 Component Sizing Information, Coil:Cooling:DX:TwoSpeed, BASESYS5 COILCLG-2, Design Size Low Speed Gross Rated Sensible Heat Ratio, 0.79687
 VAV DX Cooling Coil Standard Rating Information, Coil:Cooling:DX:TwoSpeed,BASESYS5 COILCLG-2,N/A,N/A,45460.78,155118.63,12.13,3.18,3.61,3.46,3.49,10.86,12.33,11.82,11.92,2.9079,2.3285,1.6685,0.7531,
 Component Sizing Information, Coil:Heating:Water, BASESYS5 COILHTG-2, Design Size Rated Capacity [W], 5108.17200
 Component Sizing Information, Coil:Heating:Water, BASESYS5 COILHTG-2, User-Specified Rated Capacity [W], 5957.10911
 Component Sizing Information, Coil:Heating:Water, BASESYS5 COILHTG-2, Design Size Maximum Water Flow Rate [m3/s], 1.30429E-004
 Component Sizing Information, Coil:Heating:Water, BASESYS5 COILHTG-2, Design Size U-Factor Times Area Value [W/K], 119.05979
Water Heating Coil Capacity Information,Coil:Heating:Water,BASESYS5 COILHTG-2,5969.14
 Component Sizing Information, Fan:VariableVolume, BASESYS5 FAN-2, Design Size Maximum Flow Rate [m3/s], 2.19345
 Component Sizing Information, Fan:VariableVolume, BASESYS5 FAN-2, User-Specified Maximum Flow Rate [m3/s], 2.52219
 Component Sizing Information, Controller:OutdoorAir, BASESYS5 OACTRL-3, Maximum Outdoor Air Flow Rate [m3/s], 0.73573
 Component Sizing Information, Coil:Cooling:DX:TwoSpeed, BASESYS5 COILCLG-3, Design Size High Speed Rated Air Flow Rate [m3/s], 0.73573
 Component Sizing Information, Coil:Cooling:DX:TwoSpeed, BASESYS5 COILCLG-3, User-Specified High Speed Rated Air Flow Rate [m3/s], 0.84599
 Component Sizing Information, Coil:Cooling:DX:TwoSpeed, BASESYS5 COILCLG-3, User-Specified High Speed Gross Rated Total Cooling Capacity [W], 15946.78822
 Component Sizing Information, Coil:Cooling:DX:TwoSpeed, BASESYS5 COILCLG-3, Design Size High Speed Rated Sensible Heat Ratio, 0.79687
 Component Sizing Information, Coil:Cooling:DX:TwoSpeed, BASESYS5 COILCLG-3, Design Size Low Speed Rated Air Flow Rate [m3/s], 0.28197
 Component Sizing Information, Coil:Cooling:DX:TwoSpeed, BASESYS5 COILCLG-3, User-Specified Low Speed Rated Air Flow Rate [m3/s], 0.42300
 Component Sizing Information, Coil:Cooling:DX:TwoSpeed, BASESYS5 COILCLG-3, Design Size Low Speed Gross Rated Total Cooling Capacity [W], 5315.06451
 Component Sizing Information, Coil:Cooling:DX:TwoSpeed, BASESYS5 COILCLG-3, User-Specified Low Speed Gross Rated Total Cooling Capacity [W], 7973.39411
 Component Sizing Information, Coil:Cooling:DX:TwoSpeed, BASESYS5 COILCLG-3, Design Size Low Speed Gross Rated Sensible Heat Ratio, 0.79687
 VAV DX Cooling Coil Standard Rating Information, Coil:Cooling:DX:TwoSpeed,BASESYS5 COILCLG-3,N/A,N/A,15248.51,52030.08,12.13,3.18,3.61,3.46,3.49,10.86,12.33,11.82,11.92,0.9754,0.7810,0.5596,0.2526,
 Component Sizing Information, Coil:Heating:Water, BASESYS5 COILHTG-3, Design Size Rated Capacity [W], 1687.37359
 Component Sizing Information, Coil:Heating:Water, BASESYS5 COILHTG-3, User-Specified Rated Capacity [W], 1969.44638
 Component Sizing Information, Coil:Heating:Water, BASESYS5 COILHTG-3, Design Size Maximum Water Flow Rate [m3/s], 4.31205E-005
 Component Sizing Information, Coil:Heating:Water, BASESYS5 COILHTG-3, Design Size U-Factor Times Area Value [W/K], 39.36169
Water Heating Coil Capacity Information,Coil:Heating:Water,BASESYS5 COILHTG-3,1973.43
 Component Sizing Information, Fan:VariableVolume, BASESYS5 FAN-3, Design Size Maximum Flow Rate [m3/s], 0.73573
 Component Sizing Information, Fan:VariableVolume, BASESYS5 FAN-3, User-Specified Maximum Flow Rate [m3/s], 0.84599
Water Heater Information,WaterHeater:Mixed,NONRESBASEELECWATERHEATER,9.1259E-002,7026.7,1.055,1.0112
Water Heater Information,WaterHeater:Mixed,NONRESBASEGASWATERHEATER,2.2302E-002,2146.5,1.285,0.8796
 Component Sizing Information, PlantLoop, BASEHWSYSTEM, Plant Loop Volume [m3], 0.29304
 Component Sizing Information, Boiler:HotWater, BASE BLR, Design Size Nominal Capacity [W], 223291.25889
 Component Sizing Information, Boiler:HotWater, BASE BLR, User-Specified Nominal Capacity [W], 113480.63522
 Component Sizing Information, Boiler:HotWater, BASE BLR, Design Size Design Water Flow Rate [m3/s], 2.44201E-003
 Component Sizing Information, Boiler:HotWater, BASE BLR, User-Specified Design Water Flow Rate [m3/s], 1.22168E-003
 Component Sizing Information, Boiler:HotWater, BASE BLR-2, Design Size Nominal Capacity [W], 223291.25889
 Component Sizing Information, Boiler:HotWater, BASE BLR-2, User-Specified Nominal Capacity [W], 113480.63522
 Component Sizing Information, Boiler:HotWater, BASE BLR-2, Design Size Design Water Flow Rate [m3/s], 2.44201E-003
 Component Sizing Information, Boiler:HotWater, BASE BLR-2, User-Specified Design Water Flow Rate [m3/s], 1.22168E-003
 Component Sizing Information, PlantLoop, NONRESBASEELECSHWSYSTEM, Maximum Loop Flow Rate [m3/s], 2.94770E-005
 Component Sizing Information, PlantLoop, NONRESBASEELECSHWSYSTEM, Plant Loop Volume [m3], 3.53724E-003
 Component Sizing Information, Pump:VariableSpeed, {696B6B1A-4509-4E77-A4D8-F4983D768866}, Design Flow Rate [m3/s], 2.94770E-005
 Component Sizing Information, Pump:VariableSpeed, {696B6B1A-4509-4E77-A4D8-F4983D768866}, Design Power Consumption [W], 0.00000
 Component Sizing Information, WaterHeater:Mixed, NONRESBASEELECWATERHEATER, Use Side Design Flow Rate [m3/s], 2.94770E-005
 Component Sizing Information, PlantLoop, NONRESBASEGASSHWSYSTEM, Maximum Loop Flow Rate [m3/s], 7.20381E-006
 Component Sizing Information, PlantLoop, NONRESBASEGASSHWSYSTEM, Plant Loop Volume [m3], 8.64457E-004
 Component Sizing Information, Pump:VariableSpeed, {D6FEB3E7-8A1E-4A1A-B6E3-058A6034398E}, Design Flow Rate [m3/s], 7.20381E-006
 Component Sizing Information, Pump:VariableSpeed, {D6FEB3E7-8A1E-4A1A-B6E3-058A6034398E}, Design Power Consumption [W], 0.00000
 Component Sizing Information, WaterHeater:Mixed, NONRESBASEGASWATERHEATER, Use Side Design Flow Rate [m3/s], 7.20381E-006
! <Environment>,Environment Name,Environment Type, Start Date, End Date, Start DayOfWeek, Duration {#days}, Source:Start DayOfWeek,  Use Daylight Saving, Use Holidays, Apply Weekend Holiday Rule,  Use Rain Values, Use Snow Values
! <Environment:Special Days>, Special Day Name, Special Day Type, Source, Start Date, Duration {#days}
! <Environment:Daylight Saving>, Daylight Saving Indicator, Source, Start Date, End Date
! <Environment:WarmupDays>, NumberofWarmupDays
Environment,TORRANCE_722955_CZ2010,WeatherFileRunPeriod,01/01/2009,12/31/2009,Thursday,365,Use RunPeriod Specified Day,No,No,Yes,Yes,Yes
Environment:Daylight Saving,No,RunPeriod Object
Environment:Special Days,CHRISTMAS DAY,Holiday,InputFile,12/25,  1
Environment:Special Days,COLUMBUS DAY,Holiday,InputFile,10/12,  1
Environment:Special Days,INDEPENDENCE DAY,Holiday,InputFile,07/06,  1
Environment:Special Days,LABOR DAY,Holiday,InputFile,09/07,  1
Environment:Special Days,MARTIN LUTHER KING DAY,Holiday,InputFile,01/19,  1
Environment:Special Days,MEMORIAL DAY,Holiday,InputFile,05/25,  1
Environment:Special Days,NEW YEAR'S DAY,Holiday,InputFile,01/01,  1
Environment:Special Days,PRESIDENTS DAY,Holiday,InputFile,02/16,  1
Environment:Special Days,THANKSGIVING DAY,Holiday,InputFile,11/26,  1
Environment:Special Days,VETERANS DAY,Holiday,InputFile,11/11,  1
Environment:WarmupDays,  7
! <Warmup Convergence Information>,Zone Name,Environment Type/Name,Average Warmup Temperature Difference {deltaC},Std Dev Warmup Temperature Difference {deltaC},Max Temperature Pass/Fail Convergence,Min Temperature Pass/Fail Convergence,Average Warmup Load Difference {W},Std Dev Warmup Load Difference {W},Heating Load Pass/Fail Convergence,Cooling Load Pass/Fail Convergence
 Warmup Convergence Information,THERMAL ZONE: F1 BUSINESS CENTER,RunPeriod: TORRANCE_722955_CZ2010,0.1481306100,0.3829585477,Pass,Pass,0.1938920431,0.9648185099,Pass,Pass
 Warmup Convergence Information,THERMAL ZONE: F1 CORRIDOR,RunPeriod: TORRANCE_722955_CZ2010,9.4112590588E-002,0.3871584980,Pass,Pass,0.1075881461,0.2249755019,Pass,Pass
 Warmup Convergence Information,THERMAL ZONE: F1 FITNESS CENTER,RunPeriod: TORRANCE_722955_CZ2010,9.8836373823E-002,0.3876354849,Pass,Pass,0.1755676377,0.5723969949,Pass,Pass
 Warmup Convergence Information,THERMAL ZONE: F1 LEASING OFFICE,RunPeriod: TORRANCE_722955_CZ2010,0.1548790403,0.4034458697,Pass,Pass,0.4704299085,3.5282237743,Pass,Pass
 Warmup Convergence Information,THERMAL ZONE: F1 LOUNGE,RunPeriod: TORRANCE_722955_CZ2010,0.1564174386,0.3848506594,Pass,Pass,7.2095496067E-002,0.1791109146,Pass,Pass
 Warmup Convergence Information,THERMAL ZONE: F1 MECHANICAL ROOM,RunPeriod: TORRANCE_722955_CZ2010,0.1360088532,0.3073441341,Pass,Pass,5.1518223103E-002,0.1158908739,Pass,Pass
 Warmup Convergence Information,THERMAL ZONE: F1 RETAIL N-NW,RunPeriod: TORRANCE_722955_CZ2010,0.1023232720,0.3484405516,Pass,Pass,0.1195128761,0.4657111409,Pass,Pass
 Warmup Convergence Information,THERMAL ZONE: F1 RETAIL NE,RunPeriod: TORRANCE_722955_CZ2010,0.1039511519,0.3646857533,Pass,Pass,0.1135567363,0.4085170706,Pass,Pass
 Warmup Convergence Information,THERMAL ZONE: F1 RETAIL SE,RunPeriod: TORRANCE_722955_CZ2010,0.1419483766,0.4339074733,Pass,Pass,0.1336595547,0.4954329922,Pass,Pass
 Warmup Convergence Information,THERMAL ZONE: F1 RETAIL SW,RunPeriod: TORRANCE_722955_CZ2010,0.1312309718,0.4167424116,Pass,Pass,0.1356613145,0.5169729473,Pass,Pass
 Warmup Convergence Information,THERMAL ZONE: F2-4 1-BED CORE EAST,RunPeriod: TORRANCE_722955_CZ2010,0.1120670449,8.4218985687E-002,Pass,Pass,7.2683647470E-002,0.4456154972,Pass,Pass
 Warmup Convergence Information,THERMAL ZONE: F2-4 1-BED CORE N,RunPeriod: TORRANCE_722955_CZ2010,0.1156792400,9.0225234004E-002,Pass,Pass,0.0000000000,0.0000000000,Pass,Pass
 Warmup Convergence Information,THERMAL ZONE: F2-4 1-BED CORE WEST,RunPeriod: TORRANCE_722955_CZ2010,9.9697042718E-002,7.3300722203E-002,Pass,Pass,5.7902775753E-002,0.3398052133,Pass,Pass
 Warmup Convergence Information,THERMAL ZONE: F2-4 1-BED NORTH,RunPeriod: TORRANCE_722955_CZ2010,9.7629070185E-002,7.6548410327E-002,Pass,Pass,3.0590989003E-002,0.1237833705,Pass,Pass
 Warmup Convergence Information,THERMAL ZONE: F2-4 2-BED CORE NE-NW,RunPeriod: TORRANCE_722955_CZ2010,9.0489829720E-002,7.0884111774E-002,Pass,Pass,0.0000000000,0.0000000000,Pass,Pass
 Warmup Convergence Information,THERMAL ZONE: F2-4 2-BED EAST,RunPeriod: TORRANCE_722955_CZ2010,0.1260351626,0.1015433363,Pass,Pass,5.4704042618E-002,0.2672294482,Pass,Pass
 Warmup Convergence Information,THERMAL ZONE: F2-4 2-BED WEST,RunPeriod: TORRANCE_722955_CZ2010,0.1360670138,9.7753624930E-002,Pass,Pass,4.5518635704E-002,0.1766600304,Pass,Pass
 Warmup Convergence Information,THERMAL ZONE: F2-4 3-BED NE,RunPeriod: TORRANCE_722955_CZ2010,0.1215225655,0.1464334673,Pass,Pass,4.2092725767E-002,0.1758571166,Pass,Pass
 Warmup Convergence Information,THERMAL ZONE: F2-4 3-BED NW,RunPeriod: TORRANCE_722955_CZ2010,0.1324945542,0.1371131587,Pass,Pass,7.5566928121E-002,0.2705741664,Pass,Pass
 Warmup Convergence Information,THERMAL ZONE: F2-4 CORRIDOR,RunPeriod: TORRANCE_722955_CZ2010,7.5110694701E-002,9.8320822744E-002,Pass,Pass,1.7678214767E-002,0.1085179864,Pass,Pass
 Warmup Convergence Information,THERMAL ZONE: F2-4 STUDIO SE,RunPeriod: TORRANCE_722955_CZ2010,0.1581247968,0.2151132638,Pass,Pass,0.1864362073,1.0789450358,Pass,Pass
 Warmup Convergence Information,THERMAL ZONE: F2-4 STUDIO SW,RunPeriod: TORRANCE_722955_CZ2010,0.1597067035,0.2146672817,Pass,Pass,0.2173264221,1.1745489159,Pass,Pass
 Warmup Convergence Information,THERMAL ZONE: F5 1-BED CORE EAST,RunPeriod: TORRANCE_722955_CZ2010,0.1502267363,0.2302824712,Pass,Pass,0.1037887598,0.5228391268,Pass,Pass
 Warmup Convergence Information,THERMAL ZONE: F5 1-BED CORE N,RunPeriod: TORRANCE_722955_CZ2010,0.1550192606,0.1859699872,Pass,Pass,0.1021246437,0.5261884819,Pass,Pass
 Warmup Convergence Information,THERMAL ZONE: F5 1-BED CORE WEST,RunPeriod: TORRANCE_722955_CZ2010,0.1360391830,0.2336646594,Pass,Pass,0.1489371532,0.6530760876,Pass,Pass
 Warmup Convergence Information,THERMAL ZONE: F5 1-BED NORTH,RunPeriod: TORRANCE_722955_CZ2010,0.1328158040,0.2237270928,Pass,Pass,0.2041836947,1.0993056296,Pass,Pass
 Warmup Convergence Information,THERMAL ZONE: F5 2-BED CORE NE-NW,RunPeriod: TORRANCE_722955_CZ2010,0.1155761731,0.1381432973,Pass,Pass,0.1638825846,0.7876220350,Pass,Pass
 Warmup Convergence Information,THERMAL ZONE: F5 2-BED EAST,RunPeriod: TORRANCE_722955_CZ2010,0.1669703520,0.2595674074,Pass,Pass,0.1966083646,1.2972542154,Pass,Pass
 Warmup Convergence Information,THERMAL ZONE: F5 2-BED WEST,RunPeriod: TORRANCE_722955_CZ2010,0.1752925615,0.2533516725,Pass,Pass,0.1735897701,1.0828542231,Pass,Pass
 Warmup Convergence Information,THERMAL ZONE: F5 3-BED NE,RunPeriod: TORRANCE_722955_CZ2010,0.1612433943,0.3068992846,Pass,Pass,0.1619560721,0.8064654107,Pass,Pass
 Warmup Convergence Information,THERMAL ZONE: F5 3-BED NW,RunPeriod: TORRANCE_722955_CZ2010,0.1726494624,0.2980389707,Pass,Pass,0.1347049513,0.7173686127,Pass,Pass
 Warmup Convergence Information,THERMAL ZONE: F5 CORRIDOR,RunPeriod: TORRANCE_722955_CZ2010,9.5624670886E-002,8.4226412088E-002,Pass,Pass,2.6499592777E-002,0.1106052698,Pass,Pass
 Warmup Convergence Information,THERMAL ZONE: F5 STUDIO SE,RunPeriod: TORRANCE_722955_CZ2010,0.1952073038,0.3499800959,Pass,Pass,0.1261372573,0.3894098000,Pass,Pass
 Warmup Convergence Information,THERMAL ZONE: F5 STUDIO SW,RunPeriod: TORRANCE_722955_CZ2010,0.1962645639,0.3500379875,Pass,Pass,0.3212771907,2.1474543920,Pass,Pass
 Warmup Convergence Information,THERMAL ZONE: PARKING GARAGE,RunPeriod: TORRANCE_722955_CZ2010,0.1536262332,0.1448675502,Pass,Pass,0.0000000000,0.0000000000,Pass,Pass
! <Program Control Information:Threads/Parallel Sims>, Threading Supported,Maximum Number of Threads, Env Set Threads (OMP_NUM_THREADS), EP Env Set Threads (EP_OMP_NUM_THREADS), IDF Set Threads, Number of Threads Used (Interior Radiant Exchange), Number Nominal Surfaces, Number Parallel Sims
Program Control:Threads/Parallel Sims, No,1, N/A, N/A, N/A, N/A, N/A, N/A
End of Data
