Program Version,EnergyPlus, Version 9.0.1-bb7ca4f0da, YMD=2019.12.17 18:53,
   ************* Beginning Zone Sizing Calculations
   ** Warning ** ProcessScheduleInput: Schedule:Day:Interval="{166B3513-076F-49C8-BD36-B4132AA46AF0}", Blank Schedule Type Limits Name input -- will not be validated.
   ** Warning ** ProcessScheduleInput: Schedule:Day:Interval="{190811FF-DA55-4DED-8639-D7E5ABC2B30F}", Blank Schedule Type Limits Name input -- will not be validated.
   ** Warning ** ProcessScheduleInput: Schedule:Day:Interval="{200A1C3E-507C-41C0-AAA3-C9BB0E8E5430}", Blank Schedule Type Limits Name input -- will not be validated.
   ** Warning ** ProcessScheduleInput: Schedule:Day:Interval="{2EB37DCF-9A8D-41FC-8BD3-4FCCD34B106B}", Blank Schedule Type Limits Name input -- will not be validated.
   ** Warning ** ProcessScheduleInput: Schedule:Day:Interval="{4C34CC50-5D6C-4F77-9D1C-75954AEC82BF}", Blank Schedule Type Limits Name input -- will not be validated.
   ** Warning ** ProcessScheduleInput: Schedule:Day:Interval="{5C34AE6A-8A9C-4B07-931A-27916957D8EA}", Blank Schedule Type Limits Name input -- will not be validated.
   ** Warning ** ProcessScheduleInput: Schedule:Day:Interval="{656D0491-3FCB-40D8-86F3-E68349B268A1}", Blank Schedule Type Limits Name input -- will not be validated.
   ** Warning ** ProcessScheduleInput: Schedule:Day:Interval="{668A644F-8FCB-45EC-AEDA-6264C462A899}", Blank Schedule Type Limits Name input -- will not be validated.
   ** Warning ** ProcessScheduleInput: Schedule:Day:Interval="{6E679DC4-614F-4F1D-9E50-0AC2ADD84D8E}", Blank Schedule Type Limits Name input -- will not be validated.
   ** Warning ** ProcessScheduleInput: Schedule:Day:Interval="{7AF781F6-58E0-4680-A0C4-25ED54E41449}", Blank Schedule Type Limits Name input -- will not be validated.
   ** Warning ** ProcessScheduleInput: Schedule:Day:Interval="{827F580E-B2D7-47DA-9556-9E8E5E55AFB1}", Blank Schedule Type Limits Name input -- will not be validated.
   ** Warning ** ProcessScheduleInput: Schedule:Day:Interval="{8ABDDFE5-77C8-466E-91AF-939759BCC76B}", Blank Schedule Type Limits Name input -- will not be validated.
   ** Warning ** ProcessScheduleInput: Schedule:Day:Interval="{8BEAF6F0-2EA6-4087-9D7A-F61A91020AA6}", Blank Schedule Type Limits Name input -- will not be validated.
   ** Warning ** ProcessScheduleInput: Schedule:Day:Interval="{916B9346-43F0-4F22-AD6B-522D2E82541D}", Blank Schedule Type Limits Name input -- will not be validated.
   ** Warning ** ProcessScheduleInput: Schedule:Day:Interval="{9A1B0DBE-52EA-4F0D-950E-6FF4F9F83A01}", Blank Schedule Type Limits Name input -- will not be validated.
   ** Warning ** ProcessScheduleInput: Schedule:Day:Interval="{9A6DCD8B-1D2D-4B84-961B-E2E8F3526DFB}", Blank Schedule Type Limits Name input -- will not be validated.
   ** Warning ** ProcessScheduleInput: Schedule:Day:Interval="{A119C1AF-F5E0-4EFC-AD34-04473E8ECFD4}", Blank Schedule Type Limits Name input -- will not be validated.
   ** Warning ** ProcessScheduleInput: Schedule:Day:Interval="{A12C0EF3-10FC-4095-9585-C1A863154411}", Blank Schedule Type Limits Name input -- will not be validated.
   ** Warning ** ProcessScheduleInput: Schedule:Day:Interval="{A336C251-E7BD-42F0-8B13-0055C55E4186}", Blank Schedule Type Limits Name input -- will not be validated.
   ** Warning ** ProcessScheduleInput: Schedule:Day:Interval="{C31938A9-FFA2-49F4-B7E0-8121A6E5B4D7}", Blank Schedule Type Limits Name input -- will not be validated.
   ** Warning ** ProcessScheduleInput: Schedule:Day:Interval="{C87DA802-ABBE-4F34-BEEF-81C2D9071E58}", Blank Schedule Type Limits Name input -- will not be validated.
   ** Warning ** ProcessScheduleInput: Schedule:Day:Interval="{CE21593E-2E8F-4D4A-86D1-99C2B48F03F6}", Blank Schedule Type Limits Name input -- will not be validated.
   ** Warning ** ProcessScheduleInput: Schedule:Day:Interval="{D41FA1D9-238A-43D0-89E6-35BDDBBB01A7}", Blank Schedule Type Limits Name input -- will not be validated.
   ** Warning ** ProcessScheduleInput: Schedule:Day:Interval="{DC607F96-692D-4961-94D7-16766D2E297F}", Blank Schedule Type Limits Name input -- will not be validated.
   ** Warning ** ProcessScheduleInput: Schedule:Day:Interval="{DE93D7E7-5221-447F-A61B-3400A84586E5}", Blank Schedule Type Limits Name input -- will not be validated.
   ** Warning ** ProcessScheduleInput: Schedule:Day:Interval="{E8157512-D745-4DBA-AB76-A34845665E9F}", Blank Schedule Type Limits Name input -- will not be validated.
   ** Warning ** ProcessScheduleInput: Schedule:Day:Interval="{EACB5725-DBD0-42CC-B0A3-FF002B2F7277}", Blank Schedule Type Limits Name input -- will not be validated.
   ** Warning ** ProcessScheduleInput: Schedule:Day:Interval="{F1E2D31F-3ECD-4259-B0E1-D57F4E46241F}", Blank Schedule Type Limits Name input -- will not be validated.
   ** Warning ** ProcessScheduleInput: Schedule:Year="F1 BUSINESS CENTER TARGET SHW TEMP", Blank Schedule Type Limits Name input -- will not be validated.
   ** Warning ** ProcessScheduleInput: Schedule:Year="F1 ELEVATOR CORE TARGET SHW TEMP", Blank Schedule Type Limits Name input -- will not be validated.
   ** Warning ** ProcessScheduleInput: Schedule:Year="F1 ELEVATOR N TARGET SHW TEMP", Blank Schedule Type Limits Name input -- will not be validated.
   ** Warning ** ProcessScheduleInput: Schedule:Year="F1 ELEVATOR S TARGET SHW TEMP", Blank Schedule Type Limits Name input -- will not be validated.
   ** Warning ** ProcessScheduleInput: Schedule:Year="F1 FITNESS CENTER TARGET SHW TEMP", Blank Schedule Type Limits Name input -- will not be validated.
   ** Warning ** ProcessScheduleInput: Schedule:Year="F1 LEASING OFFICE TARGET SHW TEMP", Blank Schedule Type Limits Name input -- will not be validated.
   ** Warning ** ProcessScheduleInput: Schedule:Year="F1 LOUNGE TARGET SHW TEMP", Blank Schedule Type Limits Name input -- will not be validated.
   ** Warning ** ProcessScheduleInput: Schedule:Year="F1 MECHANICAL ROOM TARGET SHW TEMP", Blank Schedule Type Limits Name input -- will not be validated.
   ** Warning ** ProcessScheduleInput: Schedule:Year="F1 RETAIL N CORE TARGET SHW TEMP", Blank Schedule Type Limits Name input -- will not be validated.
   ** Warning ** ProcessScheduleInput: Schedule:Year="F1 RETAIL NE CORE TARGET SHW TEMP", Blank Schedule Type Limits Name input -- will not be validated.
   ** Warning ** ProcessScheduleInput: Schedule:Year="F1 RETAIL NE INNER TARGET SHW TEMP", Blank Schedule Type Limits Name input -- will not be validated.
   ** Warning ** ProcessScheduleInput: Schedule:Year="F1 RETAIL NE OUTER TARGET SHW TEMP", Blank Schedule Type Limits Name input -- will not be validated.
   ** Warning ** ProcessScheduleInput: Schedule:Year="F1 RETAIL NW INNER CORE TARGET SHW TEMP", Blank Schedule Type Limits Name input -- will not be validated.
   ** Warning ** ProcessScheduleInput: Schedule:Year="F1 RETAIL NW OUTER CORE TARGET SHW TEMP", Blank Schedule Type Limits Name input -- will not be validated.
   ** Warning ** ProcessScheduleInput: Schedule:Year="F1 RETAIL NW OUTER TARGET SHW TEMP", Blank Schedule Type Limits Name input -- will not be validated.
   ** Warning ** ProcessScheduleInput: Schedule:Year="F1 RETAIL SE BOTTOM TARGET SHW TEMP", Blank Schedule Type Limits Name input -- will not be validated.
   ** Warning ** ProcessScheduleInput: Schedule:Year="F1 RETAIL SE TOP TARGET SHW TEMP", Blank Schedule Type Limits Name input -- will not be validated.
   ** Warning ** ProcessScheduleInput: Schedule:Year="F1 RETAIL SW BOTTOM TARGET SHW TEMP", Blank Schedule Type Limits Name input -- will not be validated.
   ** Warning ** ProcessScheduleInput: Schedule:Year="F1 RETAIL SW CORE TARGET SHW TEMP", Blank Schedule Type Limits Name input -- will not be validated.
   ** Warning ** ProcessScheduleInput: Schedule:Year="F1 RETAIL SW TOP TARGET SHW TEMP", Blank Schedule Type Limits Name input -- will not be validated.
   ** Warning ** ProcessScheduleInput: Schedule:Year="F2-4 ELEVATOR CORE TARGET SHW TEMP", Blank Schedule Type Limits Name input -- will not be validated.
   ** Warning ** ProcessScheduleInput: Schedule:Year="F2-4 ELEVATOR N TARGET SHW TEMP", Blank Schedule Type Limits Name input -- will not be validated.
   ** Warning ** ProcessScheduleInput: Schedule:Year="F2-4 ELEVATOR S TARGET SHW TEMP", Blank Schedule Type Limits Name input -- will not be validated.
   ** Warning ** ProcessScheduleInput: Schedule:Year="F2-4 LAUNDRY TARGET SHW TEMP", Blank Schedule Type Limits Name input -- will not be validated.
   ** Warning ** ProcessScheduleInput: Schedule:Year="F5 ELEVATOR CORE TARGET SHW TEMP", Blank Schedule Type Limits Name input -- will not be validated.
   ** Warning ** ProcessScheduleInput: Schedule:Year="F5 ELEVATOR N TARGET SHW TEMP", Blank Schedule Type Limits Name input -- will not be validated.
   ** Warning ** ProcessScheduleInput: Schedule:Year="F5 ELEVATOR S TARGET SHW TEMP", Blank Schedule Type Limits Name input -- will not be validated.
   ** Warning ** ProcessScheduleInput: Schedule:Year="F5 LAUNDRY TARGET SHW TEMP", Blank Schedule Type Limits Name input -- will not be validated.
   ** Warning ** ProcessScheduleInput: Schedule:Constant="ALWAYS OFF DISCRETE", Blank Schedule Type Limits Name input -- will not be validated.
   ** Warning ** ProcessScheduleInput: Schedule:Constant="ALWAYS ON CONTINUOUS", Blank Schedule Type Limits Name input -- will not be validated.
   ** Warning ** Weather file location will be used rather than entered (IDF) Location object.
   **   ~~~   ** ..Location object=SACRAMENTO-EXECUTIVE-ARP DESIGN_CONDITIONS
   **   ~~~   ** ..Weather File Location=SACRAMENTO-EXECUTIVE-AP - USA Custom-724830 WMO#=724830
   **   ~~~   ** ..due to location differences, Latitude difference=[0.00] degrees, Longitude difference=[0.00] degrees.
   **   ~~~   ** ..Time Zone difference=[0.0] hour(s), Elevation difference=[26.19] percent, [1.04] meters.
   ** Warning ** CalculateZoneVolume: 22 zones are not fully enclosed. For more details use:  Output:Diagnostics,DisplayExtrawarnings; 
   ** Warning ** GetSimpleAirModelInputs: ZoneInfiltration:DesignFlowRate="F1 MECHANICAL ROOM SPACE INFILTRATION DESIGN FLOW RATE 1", Design Flow Rate Calculation Method specifies Flow per Exterior Surface Area, but Exterior Wall Area = 0.  0 Infiltration will result.
   ** Warning ** GetSimpleAirModelInputs: ZoneInfiltration:DesignFlowRate="PARKING GARAGE SPACE INFILTRATION DESIGN FLOW RATE 1", Design Flow Rate Calculation Method specifies Flow per Exterior Surface Area, but Exterior Wall Area = 0.  0 Infiltration will result.
   ** Warning ** SetUpZoneSizingArrays: Requested Sizing for Zone="THERMAL ZONE: PARKING GARAGE", Zone has no thermostat (ref: ZoneControl:Thermostat, et al)
   ** Warning ** Calculated design cooling load for zone=THERMAL ZONE: PARKING GARAGE is zero.
   **   ~~~   ** Check Sizing:Zone and ZoneControl:Thermostat inputs.
   ** Warning ** Calculated design heating load for zone=THERMAL ZONE: PARKING GARAGE is zero.
   **   ~~~   ** Check Sizing:Zone and ZoneControl:Thermostat inputs.
   ************* Beginning System Sizing Calculations
   ** Warning ** Since Zone Minimum Air Flow Input Method = FIXEDFLOWRATE, input for Constant Minimum Air Flow Fraction will be ignored.
   **   ~~~   ** Occurs in AirTerminal:SingleDuct:VAV:Reheat = BASEVAVBOX TRMLUNIT
   ** Warning ** Since Damper Heating Action = REVERSE, input for Maximum Flow Fraction During Reheat will be ignored.
   **   ~~~   ** Occurs in AirTerminal:SingleDuct:VAV:Reheat = BASEVAVBOX TRMLUNIT
   ** Warning ** Since Zone Minimum Air Flow Input Method = FIXEDFLOWRATE, input for Constant Minimum Air Flow Fraction will be ignored.
   **   ~~~   ** Occurs in AirTerminal:SingleDuct:VAV:Reheat = BASEVAVBOX TRMLUNIT-2
   ** Warning ** Since Damper Heating Action = REVERSE, input for Maximum Flow Fraction During Reheat will be ignored.
   **   ~~~   ** Occurs in AirTerminal:SingleDuct:VAV:Reheat = BASEVAVBOX TRMLUNIT-2
   ** Warning ** Since Zone Minimum Air Flow Input Method = FIXEDFLOWRATE, input for Constant Minimum Air Flow Fraction will be ignored.
   **   ~~~   ** Occurs in AirTerminal:SingleDuct:VAV:Reheat = BASEVAVBOX TRMLUNIT-4
   ** Warning ** Since Damper Heating Action = REVERSE, input for Maximum Flow Fraction During Reheat will be ignored.
   **   ~~~   ** Occurs in AirTerminal:SingleDuct:VAV:Reheat = BASEVAVBOX TRMLUNIT-4
   ** Warning ** Since Zone Minimum Air Flow Input Method = FIXEDFLOWRATE, input for Constant Minimum Air Flow Fraction will be ignored.
   **   ~~~   ** Occurs in AirTerminal:SingleDuct:VAV:Reheat = BASEVAVBOX TRMLUNIT-5
   ** Warning ** Since Damper Heating Action = REVERSE, input for Maximum Flow Fraction During Reheat will be ignored.
   **   ~~~   ** Occurs in AirTerminal:SingleDuct:VAV:Reheat = BASEVAVBOX TRMLUNIT-5
   ** Warning ** Since Zone Minimum Air Flow Input Method = FIXEDFLOWRATE, input for Constant Minimum Air Flow Fraction will be ignored.
   **   ~~~   ** Occurs in AirTerminal:SingleDuct:VAV:Reheat = BASEVAVBOX TRMLUNIT-3
   ** Warning ** Since Damper Heating Action = REVERSE, input for Maximum Flow Fraction During Reheat will be ignored.
   **   ~~~   ** Occurs in AirTerminal:SingleDuct:VAV:Reheat = BASEVAVBOX TRMLUNIT-3
   ** Warning ** Since Zone Minimum Air Flow Input Method = FIXEDFLOWRATE, input for Constant Minimum Air Flow Fraction will be ignored.
   **   ~~~   ** Occurs in AirTerminal:SingleDuct:VAV:Reheat = BASEVAVBOX TRMLUNIT-6
   ** Warning ** Since Damper Heating Action = REVERSE, input for Maximum Flow Fraction During Reheat will be ignored.
   **   ~~~   ** Occurs in AirTerminal:SingleDuct:VAV:Reheat = BASEVAVBOX TRMLUNIT-6
   ** Warning ** Since Zone Minimum Air Flow Input Method = FIXEDFLOWRATE, input for Constant Minimum Air Flow Fraction will be ignored.
   **   ~~~   ** Occurs in AirTerminal:SingleDuct:VAV:Reheat = BASEVAVBOX TRMLUNIT-7
   ** Warning ** Since Damper Heating Action = REVERSE, input for Maximum Flow Fraction During Reheat will be ignored.
   **   ~~~   ** Occurs in AirTerminal:SingleDuct:VAV:Reheat = BASEVAVBOX TRMLUNIT-7
   ** Warning ** Since Zone Minimum Air Flow Input Method = FIXEDFLOWRATE, input for Constant Minimum Air Flow Fraction will be ignored.
   **   ~~~   ** Occurs in AirTerminal:SingleDuct:VAV:Reheat = BASEVAVBOX TRMLUNIT-8
   ** Warning ** Since Damper Heating Action = REVERSE, input for Maximum Flow Fraction During Reheat will be ignored.
   **   ~~~   ** Occurs in AirTerminal:SingleDuct:VAV:Reheat = BASEVAVBOX TRMLUNIT-8
   ** Warning ** Since Zone Minimum Air Flow Input Method = FIXEDFLOWRATE, input for Constant Minimum Air Flow Fraction will be ignored.
   **   ~~~   ** Occurs in AirTerminal:SingleDuct:VAV:Reheat = BASEVAVBOX TRMLUNIT-9
   ** Warning ** Since Damper Heating Action = REVERSE, input for Maximum Flow Fraction During Reheat will be ignored.
   **   ~~~   ** Occurs in AirTerminal:SingleDuct:VAV:Reheat = BASEVAVBOX TRMLUNIT-9
   ** Warning ** Since Zone Minimum Air Flow Input Method = FIXEDFLOWRATE, input for Constant Minimum Air Flow Fraction will be ignored.
   **   ~~~   ** Occurs in AirTerminal:SingleDuct:VAV:Reheat = BASEVAVBOX TRMLUNIT-10
   ** Warning ** Since Damper Heating Action = REVERSE, input for Maximum Flow Fraction During Reheat will be ignored.
   **   ~~~   ** Occurs in AirTerminal:SingleDuct:VAV:Reheat = BASEVAVBOX TRMLUNIT-10
   ** Warning ** Since Zone Minimum Air Flow Input Method = FIXEDFLOWRATE, input for Constant Minimum Air Flow Fraction will be ignored.
   **   ~~~   ** Occurs in AirTerminal:SingleDuct:VAV:Reheat = BASEVAVBOX TRMLUNIT-11
   ** Warning ** Since Damper Heating Action = REVERSE, input for Maximum Flow Fraction During Reheat will be ignored.
   **   ~~~   ** Occurs in AirTerminal:SingleDuct:VAV:Reheat = BASEVAVBOX TRMLUNIT-11
   ** Warning ** Since Zone Minimum Air Flow Input Method = FIXEDFLOWRATE, input for Constant Minimum Air Flow Fraction will be ignored.
   **   ~~~   ** Occurs in AirTerminal:SingleDuct:VAV:Reheat = BASEVAVBOX TRMLUNIT-12
   ** Warning ** Since Damper Heating Action = REVERSE, input for Maximum Flow Fraction During Reheat will be ignored.
   **   ~~~   ** Occurs in AirTerminal:SingleDuct:VAV:Reheat = BASEVAVBOX TRMLUNIT-12
   ************* Beginning Plant Sizing Calculations
   ** Warning ** The Standard Ratings is calculated for Coil:Cooling:DX:SingleSpeed = BASESYS1 COILCLG-3 but not at the AHRI test condition due to curve out of bound.
   **   ~~~   **  Review the Standard Ratings calculations in the Engineering Reference for this coil type. Also, use Output:Diagnostics, DisplayExtraWarnings for further guidance.
   ** Warning ** The Standard Ratings is calculated for Coil:Cooling:DX:SingleSpeed = BASESYS1 COILCLG but not at the AHRI test condition due to curve out of bound.
   **   ~~~   **  Review the Standard Ratings calculations in the Engineering Reference for this coil type. Also, use Output:Diagnostics, DisplayExtraWarnings for further guidance.
   ** Warning ** The Standard Ratings is calculated for Coil:Cooling:DX:SingleSpeed = BASESYS1 COILCLG-2 but not at the AHRI test condition due to curve out of bound.
   **   ~~~   **  Review the Standard Ratings calculations in the Engineering Reference for this coil type. Also, use Output:Diagnostics, DisplayExtraWarnings for further guidance.
   ** Warning ** The Standard Ratings is calculated for Coil:Cooling:DX:SingleSpeed = BASESYS1 COILCLG-4 but not at the AHRI test condition due to curve out of bound.
   **   ~~~   **  Review the Standard Ratings calculations in the Engineering Reference for this coil type. Also, use Output:Diagnostics, DisplayExtraWarnings for further guidance.
   ** Warning ** The Standard Ratings is calculated for Coil:Cooling:DX:SingleSpeed = BASESYS1 COILCLG-5 but not at the AHRI test condition due to curve out of bound.
   **   ~~~   **  Review the Standard Ratings calculations in the Engineering Reference for this coil type. Also, use Output:Diagnostics, DisplayExtraWarnings for further guidance.
   ** Warning ** The Standard Ratings is calculated for Coil:Cooling:DX:SingleSpeed = BASESYS1 COILCLG-6 but not at the AHRI test condition due to curve out of bound.
   **   ~~~   **  Review the Standard Ratings calculations in the Engineering Reference for this coil type. Also, use Output:Diagnostics, DisplayExtraWarnings for further guidance.
   ** Warning ** The Standard Ratings is calculated for Coil:Cooling:DX:SingleSpeed = BASESYS1 COILCLG-7 but not at the AHRI test condition due to curve out of bound.
   **   ~~~   **  Review the Standard Ratings calculations in the Engineering Reference for this coil type. Also, use Output:Diagnostics, DisplayExtraWarnings for further guidance.
   ** Warning ** The Standard Ratings is calculated for Coil:Cooling:DX:SingleSpeed = BASESYS1 COILCLG-8 but not at the AHRI test condition due to curve out of bound.
   **   ~~~   **  Review the Standard Ratings calculations in the Engineering Reference for this coil type. Also, use Output:Diagnostics, DisplayExtraWarnings for further guidance.
   ** Warning ** The Standard Ratings is calculated for Coil:Cooling:DX:SingleSpeed = BASESYS1 COILCLG-9 but not at the AHRI test condition due to curve out of bound.
   **   ~~~   **  Review the Standard Ratings calculations in the Engineering Reference for this coil type. Also, use Output:Diagnostics, DisplayExtraWarnings for further guidance.
   ** Warning ** The Standard Ratings is calculated for Coil:Cooling:DX:SingleSpeed = BASESYS1 COILCLG-10 but not at the AHRI test condition due to curve out of bound.
   **   ~~~   **  Review the Standard Ratings calculations in the Engineering Reference for this coil type. Also, use Output:Diagnostics, DisplayExtraWarnings for further guidance.
   ** Warning ** The Standard Ratings is calculated for Coil:Cooling:DX:SingleSpeed = BASESYS1 COILCLG-11 but not at the AHRI test condition due to curve out of bound.
   **   ~~~   **  Review the Standard Ratings calculations in the Engineering Reference for this coil type. Also, use Output:Diagnostics, DisplayExtraWarnings for further guidance.
   ** Warning ** The Standard Ratings is calculated for Coil:Cooling:DX:SingleSpeed = BASESYS1 COILCLG-14 but not at the AHRI test condition due to curve out of bound.
   **   ~~~   **  Review the Standard Ratings calculations in the Engineering Reference for this coil type. Also, use Output:Diagnostics, DisplayExtraWarnings for further guidance.
   ** Warning ** The Standard Ratings is calculated for Coil:Cooling:DX:SingleSpeed = BASESYS1 COILCLG-12 but not at the AHRI test condition due to curve out of bound.
   **   ~~~   **  Review the Standard Ratings calculations in the Engineering Reference for this coil type. Also, use Output:Diagnostics, DisplayExtraWarnings for further guidance.
   ** Warning ** The Standard Ratings is calculated for Coil:Cooling:DX:SingleSpeed = BASESYS1 COILCLG-13 but not at the AHRI test condition due to curve out of bound.
   **   ~~~   **  Review the Standard Ratings calculations in the Engineering Reference for this coil type. Also, use Output:Diagnostics, DisplayExtraWarnings for further guidance.
   ** Warning ** The Standard Ratings is calculated for Coil:Cooling:DX:SingleSpeed = BASESYS1 COILCLG-15 but not at the AHRI test condition due to curve out of bound.
   **   ~~~   **  Review the Standard Ratings calculations in the Engineering Reference for this coil type. Also, use Output:Diagnostics, DisplayExtraWarnings for further guidance.
   ** Warning ** The Standard Ratings is calculated for Coil:Cooling:DX:SingleSpeed = BASESYS1 COILCLG-16 but not at the AHRI test condition due to curve out of bound.
   **   ~~~   **  Review the Standard Ratings calculations in the Engineering Reference for this coil type. Also, use Output:Diagnostics, DisplayExtraWarnings for further guidance.
   ** Warning ** The Standard Ratings is calculated for Coil:Cooling:DX:SingleSpeed = BASESYS1 COILCLG-17 but not at the AHRI test condition due to curve out of bound.
   **   ~~~   **  Review the Standard Ratings calculations in the Engineering Reference for this coil type. Also, use Output:Diagnostics, DisplayExtraWarnings for further guidance.
   ** Warning ** The Standard Ratings is calculated for Coil:Cooling:DX:SingleSpeed = BASESYS1 COILCLG-18 but not at the AHRI test condition due to curve out of bound.
   **   ~~~   **  Review the Standard Ratings calculations in the Engineering Reference for this coil type. Also, use Output:Diagnostics, DisplayExtraWarnings for further guidance.
   ** Warning ** The Standard Ratings is calculated for Coil:Cooling:DX:SingleSpeed = BASESYS1 COILCLG-19 but not at the AHRI test condition due to curve out of bound.
   **   ~~~   **  Review the Standard Ratings calculations in the Engineering Reference for this coil type. Also, use Output:Diagnostics, DisplayExtraWarnings for further guidance.
   ** Warning ** The Standard Ratings is calculated for Coil:Cooling:DX:SingleSpeed = BASESYS1 COILCLG-20 but not at the AHRI test condition due to curve out of bound.
   **   ~~~   **  Review the Standard Ratings calculations in the Engineering Reference for this coil type. Also, use Output:Diagnostics, DisplayExtraWarnings for further guidance.
   ** Warning ** The Standard Ratings is calculated for Coil:Cooling:DX:SingleSpeed = BASESYS1 COILCLG-21 but not at the AHRI test condition due to curve out of bound.
   **   ~~~   **  Review the Standard Ratings calculations in the Engineering Reference for this coil type. Also, use Output:Diagnostics, DisplayExtraWarnings for further guidance.
   ** Warning ** The Standard Ratings is calculated for Coil:Cooling:DX:SingleSpeed = BASESYS1 COILCLG-22 but not at the AHRI test condition due to curve out of bound.
   **   ~~~   **  Review the Standard Ratings calculations in the Engineering Reference for this coil type. Also, use Output:Diagnostics, DisplayExtraWarnings for further guidance.
   ** Warning ** In zone THERMAL ZONE: F2-4 1-BED CORE EAST there is unbalanced air flow. Load due to induced outdoor air is neglected.
   **   ~~~   **  Environment=SACRAMENTO-EXECUTIVE-ARP SEP CLG 0.4% CONDNS DB=>MCWB, at Simulation time=09/21 24:00 - 24:15
   **   ~~~   **   Flows [kg/s]: Inlets: 0.421791  Unbalanced exhausts: 0.546531  Returns: 0.000000
   **   ~~~   **   Infiltration: 4.171147E-002  Ventilation: 0.000000  Mixing(incoming): 0.000000
   **   ~~~   **   Imbalance (excess outflow): 8.302870E-002  This error will only be reported once per zone.
   ** Warning ** In zone THERMAL ZONE: F2-4 1-BED CORE N there is unbalanced air flow. Load due to induced outdoor air is neglected.
   **   ~~~   **  Environment=SACRAMENTO-EXECUTIVE-ARP SEP CLG 0.4% CONDNS DB=>MCWB, at Simulation time=09/21 24:00 - 24:15
   **   ~~~   **   Flows [kg/s]: Inlets: 0.205949  Unbalanced exhausts: 0.268319  Returns: 0.000000
   **   ~~~   **   Infiltration: 2.074182E-002  Ventilation: 0.000000  Mixing(incoming): 0.000000
   **   ~~~   **   Imbalance (excess outflow): 4.162827E-002  This error will only be reported once per zone.
   ** Warning ** In zone THERMAL ZONE: F2-4 1-BED CORE WEST there is unbalanced air flow. Load due to induced outdoor air is neglected.
   **   ~~~   **  Environment=SACRAMENTO-EXECUTIVE-ARP SEP CLG 0.4% CONDNS DB=>MCWB, at Simulation time=09/21 24:00 - 24:15
   **   ~~~   **   Flows [kg/s]: Inlets: 0.412836  Unbalanced exhausts: 0.537576  Returns: 0.000000
   **   ~~~   **   Infiltration: 4.171147E-002  Ventilation: 0.000000  Mixing(incoming): 0.000000
   **   ~~~   **   Imbalance (excess outflow): 8.302870E-002  This error will only be reported once per zone.
   ** Warning ** In zone THERMAL ZONE: F2-4 1-BED NORTH there is unbalanced air flow. Load due to induced outdoor air is neglected.
   **   ~~~   **  Environment=SACRAMENTO-EXECUTIVE-ARP SEP CLG 0.4% CONDNS DB=>MCWB, at Simulation time=09/21 24:00 - 24:15
   **   ~~~   **   Flows [kg/s]: Inlets: 1.111321  Unbalanced exhausts: 1.429306  Returns: 0.000000
   **   ~~~   **   Infiltration: 0.105672  Ventilation: 0.000000  Mixing(incoming): 0.000000
   **   ~~~   **   Imbalance (excess outflow): 0.212313  This error will only be reported once per zone.
   ** Warning ** In zone THERMAL ZONE: F2-4 2-BED CORE NE-NW there is unbalanced air flow. Load due to induced outdoor air is neglected.
   **   ~~~   **  Environment=SACRAMENTO-EXECUTIVE-ARP SEP CLG 0.4% CONDNS DB=>MCWB, at Simulation time=09/21 24:00 - 24:15
   **   ~~~   **   Flows [kg/s]: Inlets: 0.607122  Unbalanced exhausts: 0.794232  Returns: 0.000000
   **   ~~~   **   Infiltration: 6.128708E-002  Ventilation: 0.000000  Mixing(incoming): 0.000000
   **   ~~~   **   Imbalance (excess outflow): 0.125823  This error will only be reported once per zone.
   ** Warning ** In zone THERMAL ZONE: F2-4 2-BED EAST there is unbalanced air flow. Load due to induced outdoor air is neglected.
   **   ~~~   **  Environment=SACRAMENTO-EXECUTIVE-ARP SEP CLG 0.4% CONDNS DB=>MCWB, at Simulation time=09/21 24:00 - 24:15
   **   ~~~   **   Flows [kg/s]: Inlets: 0.960244  Unbalanced exhausts: 1.240910  Returns: 0.000000
   **   ~~~   **   Infiltration: 9.389035E-002  Ventilation: 0.000000  Mixing(incoming): 0.000000
   **   ~~~   **   Imbalance (excess outflow): 0.186775  This error will only be reported once per zone.
   ** Warning ** In zone THERMAL ZONE: F2-4 2-BED WEST there is unbalanced air flow. Load due to induced outdoor air is neglected.
   **   ~~~   **  Environment=SACRAMENTO-EXECUTIVE-ARP SEP CLG 0.4% CONDNS DB=>MCWB, at Simulation time=09/21 24:00 - 24:15
   **   ~~~   **   Flows [kg/s]: Inlets: 0.989729  Unbalanced exhausts: 1.270394  Returns: 0.000000
   **   ~~~   **   Infiltration: 9.389035E-002  Ventilation: 0.000000  Mixing(incoming): 0.000000
   **   ~~~   **   Imbalance (excess outflow): 0.186775  This error will only be reported once per zone.
   ** Warning ** In zone THERMAL ZONE: F2-4 3-BED NE there is unbalanced air flow. Load due to induced outdoor air is neglected.
   **   ~~~   **  Environment=SACRAMENTO-EXECUTIVE-ARP SEP CLG 0.4% CONDNS DB=>MCWB, at Simulation time=09/21 24:00 - 24:15
   **   ~~~   **   Flows [kg/s]: Inlets: 0.421312  Unbalanced exhausts: 0.544518  Returns: 0.000000
   **   ~~~   **   Infiltration: 4.154064E-002  Ventilation: 0.000000  Mixing(incoming): 0.000000
   **   ~~~   **   Imbalance (excess outflow): 8.166584E-002  This error will only be reported once per zone.
   ** Warning ** In zone THERMAL ZONE: F2-4 3-BED NW there is unbalanced air flow. Load due to induced outdoor air is neglected.
   **   ~~~   **  Environment=SACRAMENTO-EXECUTIVE-ARP SEP CLG 0.4% CONDNS DB=>MCWB, at Simulation time=09/21 24:00 - 24:15
   **   ~~~   **   Flows [kg/s]: Inlets: 0.433662  Unbalanced exhausts: 0.556868  Returns: 0.000000
   **   ~~~   **   Infiltration: 4.154064E-002  Ventilation: 0.000000  Mixing(incoming): 0.000000
   **   ~~~   **   Imbalance (excess outflow): 8.166584E-002  This error will only be reported once per zone.
   ** Warning ** In zone THERMAL ZONE: F2-4 STUDIO SE there is unbalanced air flow. Load due to induced outdoor air is neglected.
   **   ~~~   **  Environment=SACRAMENTO-EXECUTIVE-ARP SEP CLG 0.4% CONDNS DB=>MCWB, at Simulation time=09/21 24:00 - 24:15
   **   ~~~   **   Flows [kg/s]: Inlets: 0.170568  Unbalanced exhausts: 0.223736  Returns: 0.000000
   **   ~~~   **   Infiltration: 1.822194E-002  Ventilation: 0.000000  Mixing(incoming): 0.000000
   **   ~~~   **   Imbalance (excess outflow): 3.494601E-002  This error will only be reported once per zone.
   ** Warning ** In zone THERMAL ZONE: F2-4 STUDIO SW there is unbalanced air flow. Load due to induced outdoor air is neglected.
   **   ~~~   **  Environment=SACRAMENTO-EXECUTIVE-ARP SEP CLG 0.4% CONDNS DB=>MCWB, at Simulation time=09/21 24:00 - 24:15
   **   ~~~   **   Flows [kg/s]: Inlets: 0.167960  Unbalanced exhausts: 0.221128  Returns: 0.000000
   **   ~~~   **   Infiltration: 1.822194E-002  Ventilation: 0.000000  Mixing(incoming): 0.000000
   **   ~~~   **   Imbalance (excess outflow): 3.494601E-002  This error will only be reported once per zone.
   ** Warning ** The Standard Ratings is calculated for Coil:Cooling:DX:SingleSpeed = BASESYS5 COILCLG but not at the AHRI test condition due to curve out of bound.
   **   ~~~   **  Review the Standard Ratings calculations in the Engineering Reference for this coil type. Also, use Output:Diagnostics, DisplayExtraWarnings for further guidance.
   ** Warning ** The Standard Ratings is calculated for Coil:Cooling:DX:SingleSpeed = BASESYS5 COILCLG-2 but not at the AHRI test condition due to curve out of bound.
   **   ~~~   **  Review the Standard Ratings calculations in the Engineering Reference for this coil type. Also, use Output:Diagnostics, DisplayExtraWarnings for further guidance.
   ** Warning ** The Standard Ratings is calculated for Coil:Cooling:DX:SingleSpeed = BASESYS5 COILCLG-3 but not at the AHRI test condition due to curve out of bound.
   **   ~~~   **  Review the Standard Ratings calculations in the Engineering Reference for this coil type. Also, use Output:Diagnostics, DisplayExtraWarnings for further guidance.
   ** Warning ** Check input. Pump nominal power or motor efficiency is set to 0, for pump=BASE HW PUMP
   ** Warning ** Missing temperature setpoint for LeavingSetpointModulated mode Boiler named BASE BLR
   **   ~~~   **   A temperature setpoint is needed at the outlet node of a boiler in variable flow mode, use a SetpointManager
   **   ~~~   **   The overall loop setpoint will be assumed for Boiler. The simulation continues ... 
   ** Warning ** Check input. Pump nominal power or motor efficiency is set to 0, for pump={9C9077FB-9801-4DC2-B21F-70E399668E1A}
   ** Warning ** Check input. Pump nominal power or motor efficiency is set to 0, for pump={800CCA37-8C2D-4B33-BFB0-C643D161AD3C}
   ** Warning ** Output:Meter:MeterFileOnly: invalid Key Name="EXTERIOREQUIPMENT:DISTRICTCOOLING" - not found.
   ** Warning ** Output:Meter:MeterFileOnly: invalid Key Name="COGENERATION:DISTRICTHEATING" - not found.
   ** Warning ** Output:Meter:MeterFileOnly: invalid Key Name="PROCESS:INTERIOREQUIPMENT:GAS" - not found.
   ** Warning ** Output:Meter:MeterFileOnly: invalid Key Name="INTERIORLIGHTS:DISTRICTHEATING" - not found.
   ** Warning ** Output:Meter:MeterFileOnly: invalid Key Name="PUMPS:DISTRICTCOOLING" - not found.
   ** Warning ** Output:Meter:MeterFileOnly: invalid Key Name="PUMPS:GAS" - not found.
   ** Warning ** Output:Meter:MeterFileOnly: invalid Key Name="FANS:DISTRICTCOOLING" - not found.
   ** Warning ** Output:Meter:MeterFileOnly: invalid Key Name="HEATRECOVERY:DISTRICTHEATING" - not found.
   ** Warning ** Output:Meter:MeterFileOnly: invalid Key Name="EXTERIORLIGHTS:GAS" - not found.
   ** Warning ** Output:Meter:MeterFileOnly: invalid Key Name="WATERSYSTEMS:DISTRICTCOOLING" - not found.
   ** Warning ** Output:Meter:MeterFileOnly: invalid Key Name="EXTERIOREQUIPMENT:DISTRICTHEATING" - not found.
   ** Warning ** Output:Meter:MeterFileOnly: invalid Key Name="REFRIGERATION:GAS" - not found.
   ** Warning ** Output:Meter:MeterFileOnly: invalid Key Name="REFRIGERATION:DISTRICTCOOLING" - not found.
   ** Warning ** Output:Meter:MeterFileOnly: invalid Key Name="FANS:DISTRICTHEATING" - not found.
   ** Warning ** Output:Meter:MeterFileOnly: invalid Key Name="HEATREJECTION:ELECTRICITY" - not found.
   ** Warning ** Output:Meter:MeterFileOnly: invalid Key Name="EXTERIORLIGHTS:ELECTRICITY" - not found.
   ** Warning ** Output:Meter:MeterFileOnly: invalid Key Name="REFRIGERATION:ELECTRICITY" - not found.
   ** Warning ** Output:Meter:MeterFileOnly: invalid Key Name="EXTERIOREQUIPMENT:ELECTRICITY" - not found.
   ** Warning ** Output:Meter:MeterFileOnly: invalid Key Name="INTERNAL TRANSPORT:INTERIOREQUIPMENT:ELECTRICITY" - not found.
   ** Warning ** Output:Meter:MeterFileOnly: invalid Key Name="RECEPTACLE:EXTERIOREQUIPMENT:ELECTRICITY" - not found.
   ** Warning ** Output:Meter:MeterFileOnly: invalid Key Name="EXTERIORLIGHTS:DISTRICTHEATING" - not found.
   ** Warning ** Output:Meter:MeterFileOnly: invalid Key Name="HUMIDIFIER:ELECTRICITY" - not found.
   ** Warning ** Output:Meter:MeterFileOnly: invalid Key Name="EXTERIORLIGHTS:DISTRICTCOOLING" - not found.
   ** Warning ** Output:Meter:MeterFileOnly: invalid Key Name="HEATRECOVERY:ELECTRICITY" - not found.
   ** Warning ** Output:Meter:MeterFileOnly: invalid Key Name="HEATING:DISTRICTCOOLING" - not found.
   ** Warning ** Output:Meter:MeterFileOnly: invalid Key Name="FANS:GAS" - not found.
   ** Warning ** Output:Meter:MeterFileOnly: invalid Key Name="COGENERATION:ELECTRICITY" - not found.
   ** Warning ** Output:Meter:MeterFileOnly: invalid Key Name="HEATREJECTION:DISTRICTCOOLING" - not found.
   ** Warning ** Output:Meter:MeterFileOnly: invalid Key Name="INTERIORLIGHTS:GAS" - not found.
   ** Warning ** Output:Meter:MeterFileOnly: invalid Key Name="EXTERIOREQUIPMENT:GAS" - not found.
   ** Warning ** Output:Meter:MeterFileOnly: invalid Key Name="HEATING:DISTRICTHEATING" - not found.
   ** Warning ** Output:Meter:MeterFileOnly: invalid Key Name="COOLING:GAS" - not found.
   ** Warning ** Output:Meter:MeterFileOnly: invalid Key Name="DISTRICTHEATING:FACILITY" - not found.
   ** Warning ** Output:Meter:MeterFileOnly: invalid Key Name="HEATREJECTION:GAS" - not found.
   ** Warning ** Output:Meter:MeterFileOnly: invalid Key Name="HUMIDIFIER:GAS" - not found.
   ** Warning ** Output:Meter:MeterFileOnly: invalid Key Name="HEATRECOVERY:GAS" - not found.
   ** Warning ** Output:Meter:MeterFileOnly: invalid Key Name="COGENERATION:DISTRICTCOOLING" - not found.
   ** Warning ** Output:Meter:MeterFileOnly: invalid Key Name="COGENERATION:GAS" - not found.
   ** Warning ** Output:Meter:MeterFileOnly: invalid Key Name="DISTRICTCOOLING:FACILITY" - not found.
   ** Warning ** Output:Meter:MeterFileOnly: invalid Key Name="INTERIORLIGHTS:DISTRICTCOOLING" - not found.
   ** Warning ** Output:Meter:MeterFileOnly: invalid Key Name="INTERIOREQUIPMENT:DISTRICTCOOLING" - not found.
   ** Warning ** Output:Meter:MeterFileOnly: invalid Key Name="COOLING:DISTRICTCOOLING" - not found.
   ** Warning ** Output:Meter:MeterFileOnly: invalid Key Name="HUMIDIFIER:DISTRICTCOOLING" - not found.
   ** Warning ** Output:Meter:MeterFileOnly: invalid Key Name="HEATRECOVERY:DISTRICTCOOLING" - not found.
   ** Warning ** Output:Meter:MeterFileOnly: invalid Key Name="PUMPS:DISTRICTHEATING" - not found.
   ** Warning ** Output:Meter:MeterFileOnly: invalid Key Name="INTERIOREQUIPMENT:DISTRICTHEATING" - not found.
   ** Warning ** Output:Meter:MeterFileOnly: invalid Key Name="COOLING:DISTRICTHEATING" - not found.
   ** Warning ** Output:Meter:MeterFileOnly: invalid Key Name="REFRIGERATION:DISTRICTHEATING" - not found.
   ** Warning ** Output:Meter:MeterFileOnly: invalid Key Name="HEATREJECTION:DISTRICTHEATING" - not found.
   ** Warning ** Output:Meter:MeterFileOnly: invalid Key Name="HUMIDIFIER:DISTRICTHEATING" - not found.
   ** Warning ** Output:Meter:MeterFileOnly: invalid Key Name="WATERSYSTEMS:DISTRICTHEATING" - not found.
   ** Warning ** Output:Meter:MeterFileOnly: invalid Key Name="PROCESS:INTERIOREQUIPMENT:ELECTRICITY" - not found.
   ** Warning ** Output:Meter:MeterFileOnly: invalid Key Name="REFRIG:INTERIOREQUIPMENT:ELECTRICITY" - not found.
   ** Warning ** Output:Meter:MeterFileOnly: invalid Key Name="PROCESS:EXTERIOREQUIPMENT:ELECTRICITY" - not found.
   ** Warning ** Output:Meter:MeterFileOnly: invalid Key Name="REFRIG:EXTERIOREQUIPMENT:ELECTRICITY" - not found.
   ** Warning ** Output:Meter:MeterFileOnly: invalid Key Name="RECEPTACLE:EXTERIOREQUIPMENT:GAS" - not found.
   ** Warning ** Output:Meter:MeterFileOnly: invalid Key Name="PROCESS:EXTERIOREQUIPMENT:GAS" - not found.
   ** Warning ** Output:Meter:MeterFileOnly: invalid Key Name="REG LTG:EXTERIORLIGHTS:ELECTRICITY" - not found.
   ** Warning ** Output:Meter:MeterFileOnly: invalid Key Name="NONREG LTG:EXTERIORLIGHTS:ELECTRICITY" - not found.
   ************* Testing Individual Branch Integrity
   ************* All Branches passed integrity testing
   ************* Testing Individual Supply Air Path Integrity
   ************* All Supply Air Paths passed integrity testing
   ************* Testing Individual Return Air Path Integrity
   ************* All Return Air Paths passed integrity testing
   ************* No node connection errors were found.
   ************* Beginning Simulation
   ** Warning ** In zone THERMAL ZONE: F5 1-BED CORE EAST there is unbalanced exhaust air flow with no airloop serving the zone with outdoor air.
   **   ~~~   **  Environment=SACRAMENTO-EXECUTIVE-ARP ANN CLG 0.4% CONDNS DB=>MCWB, at Simulation time=07/21 00:00 - 00:15
   **   ~~~   **   Unless there is balancing infiltration / ventilation air flow, this will result in
   **   ~~~   **   load due to induced outdoor air being neglected in the simulation.
   ** Warning ** In zone THERMAL ZONE: F5 1-BED CORE N there is unbalanced exhaust air flow with no airloop serving the zone with outdoor air.
   **   ~~~   **  Environment=SACRAMENTO-EXECUTIVE-ARP ANN CLG 0.4% CONDNS DB=>MCWB, at Simulation time=07/21 00:00 - 00:15
   **   ~~~   **   Unless there is balancing infiltration / ventilation air flow, this will result in
   **   ~~~   **   load due to induced outdoor air being neglected in the simulation.
   ** Warning ** In zone THERMAL ZONE: F5 1-BED CORE WEST there is unbalanced exhaust air flow with no airloop serving the zone with outdoor air.
   **   ~~~   **  Environment=SACRAMENTO-EXECUTIVE-ARP ANN CLG 0.4% CONDNS DB=>MCWB, at Simulation time=07/21 00:00 - 00:15
   **   ~~~   **   Unless there is balancing infiltration / ventilation air flow, this will result in
   **   ~~~   **   load due to induced outdoor air being neglected in the simulation.
   ** Warning ** In zone THERMAL ZONE: F5 1-BED NORTH there is unbalanced exhaust air flow with no airloop serving the zone with outdoor air.
   **   ~~~   **  Environment=SACRAMENTO-EXECUTIVE-ARP ANN CLG 0.4% CONDNS DB=>MCWB, at Simulation time=07/21 00:00 - 00:15
   **   ~~~   **   Unless there is balancing infiltration / ventilation air flow, this will result in
   **   ~~~   **   load due to induced outdoor air being neglected in the simulation.
   ** Warning ** In zone THERMAL ZONE: F5 2-BED CORE NE-NW there is unbalanced exhaust air flow with no airloop serving the zone with outdoor air.
   **   ~~~   **  Environment=SACRAMENTO-EXECUTIVE-ARP ANN CLG 0.4% CONDNS DB=>MCWB, at Simulation time=07/21 00:00 - 00:15
   **   ~~~   **   Unless there is balancing infiltration / ventilation air flow, this will result in
   **   ~~~   **   load due to induced outdoor air being neglected in the simulation.
   ** Warning ** In zone THERMAL ZONE: F5 2-BED EAST there is unbalanced exhaust air flow with no airloop serving the zone with outdoor air.
   **   ~~~   **  Environment=SACRAMENTO-EXECUTIVE-ARP ANN CLG 0.4% CONDNS DB=>MCWB, at Simulation time=07/21 00:00 - 00:15
   **   ~~~   **   Unless there is balancing infiltration / ventilation air flow, this will result in
   **   ~~~   **   load due to induced outdoor air being neglected in the simulation.
   ** Warning ** In zone THERMAL ZONE: F5 2-BED WEST there is unbalanced exhaust air flow with no airloop serving the zone with outdoor air.
   **   ~~~   **  Environment=SACRAMENTO-EXECUTIVE-ARP ANN CLG 0.4% CONDNS DB=>MCWB, at Simulation time=07/21 00:00 - 00:15
   **   ~~~   **   Unless there is balancing infiltration / ventilation air flow, this will result in
   **   ~~~   **   load due to induced outdoor air being neglected in the simulation.
   ** Warning ** In zone THERMAL ZONE: F5 3-BED NE there is unbalanced exhaust air flow with no airloop serving the zone with outdoor air.
   **   ~~~   **  Environment=SACRAMENTO-EXECUTIVE-ARP ANN CLG 0.4% CONDNS DB=>MCWB, at Simulation time=07/21 00:00 - 00:15
   **   ~~~   **   Unless there is balancing infiltration / ventilation air flow, this will result in
   **   ~~~   **   load due to induced outdoor air being neglected in the simulation.
   ** Warning ** In zone THERMAL ZONE: F5 3-BED NW there is unbalanced exhaust air flow with no airloop serving the zone with outdoor air.
   **   ~~~   **  Environment=SACRAMENTO-EXECUTIVE-ARP ANN CLG 0.4% CONDNS DB=>MCWB, at Simulation time=07/21 00:00 - 00:15
   **   ~~~   **   Unless there is balancing infiltration / ventilation air flow, this will result in
   **   ~~~   **   load due to induced outdoor air being neglected in the simulation.
   ** Warning ** In zone THERMAL ZONE: F5 STUDIO SE there is unbalanced exhaust air flow with no airloop serving the zone with outdoor air.
   **   ~~~   **  Environment=SACRAMENTO-EXECUTIVE-ARP ANN CLG 0.4% CONDNS DB=>MCWB, at Simulation time=07/21 00:00 - 00:15
   **   ~~~   **   Unless there is balancing infiltration / ventilation air flow, this will result in
   **   ~~~   **   load due to induced outdoor air being neglected in the simulation.
   ** Warning ** In zone THERMAL ZONE: F5 STUDIO SW there is unbalanced exhaust air flow with no airloop serving the zone with outdoor air.
   **   ~~~   **  Environment=SACRAMENTO-EXECUTIVE-ARP ANN CLG 0.4% CONDNS DB=>MCWB, at Simulation time=07/21 00:00 - 00:15
   **   ~~~   **   Unless there is balancing infiltration / ventilation air flow, this will result in
   **   ~~~   **   load due to induced outdoor air being neglected in the simulation.
   ** Warning ** CalcDoe2DXCoil: Coil:Cooling:DX:SingleSpeed="BASESYS5 COILCLG" - Air volume flow rate per watt of rated total cooling capacity is out of range at 1.427E-005 m3/s/W.
   **   ~~~   **  Environment=SACRAMENTO-EXECUTIVE-ARP ANN CLG 0.4% CONDNS DB=>MCWB, at Simulation time=07/21 00:00 - 00:15
   **   ~~~   ** Expected range for VolumeFlowPerRatedTotalCapacity=[2.684E-005--6.713E-005]
   **   ~~~   ** Possible causes include inconsistent air flow rates in system components,
   **   ~~~   ** or variable air volume [VAV] system using incorrect coil type.
   ** Warning ** CalcDoe2DXCoil: Coil:Cooling:DX:SingleSpeed="BASESYS5 COILCLG-2" - Air volume flow rate per watt of rated total cooling capacity is out of range at 1.133E-005 m3/s/W.
   **   ~~~   **  Environment=SACRAMENTO-EXECUTIVE-ARP ANN CLG 0.4% CONDNS DB=>MCWB, at Simulation time=07/21 00:00 - 00:15
   **   ~~~   ** Expected range for VolumeFlowPerRatedTotalCapacity=[2.684E-005--6.713E-005]
   **   ~~~   ** Possible causes include inconsistent air flow rates in system components,
   **   ~~~   ** or variable air volume [VAV] system using incorrect coil type.
   ** Warning ** CalcDoe2DXCoil: Coil:Cooling:DX:SingleSpeed="BASESYS5 COILCLG-3" - Air volume flow rate per watt of rated total cooling capacity is out of range at 1.252E-005 m3/s/W.
   **   ~~~   **  Environment=SACRAMENTO-EXECUTIVE-ARP ANN CLG 0.4% CONDNS DB=>MCWB, at Simulation time=07/21 00:00 - 00:15
   **   ~~~   ** Expected range for VolumeFlowPerRatedTotalCapacity=[2.684E-005--6.713E-005]
   **   ~~~   ** Possible causes include inconsistent air flow rates in system components,
   **   ~~~   ** or variable air volume [VAV] system using incorrect coil type.
   ** Warning ** CalcDoe2DXCoil: Coil:Cooling:DX:SingleSpeed "BASESYS5 COILCLG" - Full load outlet air dry-bulb temperature < 2C. This indicates the possibility of coil frost/freeze. Outlet temperature = -10.57 C.
   **   ~~~   **  ...Occurrence info = SACRAMENTO-EXECUTIVE-ARP ANN CLG 0.4% CONDNS DB=>MCWB, 07/21 00:00 - 00:05
   **   ~~~   ** ... Possible reasons for low outlet air dry-bulb temperatures are: This DX coil
   **   ~~~   **    1) may have a low inlet air dry-bulb temperature. Inlet air temperature = 23.486 C.
   **   ~~~   **    2) may have a low air flow rate per watt of cooling capacity. Check inputs.
   **   ~~~   **    3) is used as part of a HX assisted cooling coil which uses a high sensible effectiveness. Check inputs.
   ** Warning ** CalcDoe2DXCoil: Coil:Cooling:DX:SingleSpeed "BASESYS5 COILCLG-2" - Full load outlet air dry-bulb temperature < 2C. This indicates the possibility of coil frost/freeze. Outlet temperature = -20.65 C.
   **   ~~~   **  ...Occurrence info = SACRAMENTO-EXECUTIVE-ARP ANN CLG 0.4% CONDNS DB=>MCWB, 07/21 00:00 - 00:05
   **   ~~~   ** ... Possible reasons for low outlet air dry-bulb temperatures are: This DX coil
   **   ~~~   **    1) may have a low inlet air dry-bulb temperature. Inlet air temperature = 23.454 C.
   **   ~~~   **    2) may have a low air flow rate per watt of cooling capacity. Check inputs.
   **   ~~~   **    3) is used as part of a HX assisted cooling coil which uses a high sensible effectiveness. Check inputs.
   ** Warning ** CalcDoe2DXCoil: Coil:Cooling:DX:SingleSpeed "BASESYS5 COILCLG-3" - Full load outlet air dry-bulb temperature < 2C. This indicates the possibility of coil frost/freeze. Outlet temperature = -15.54 C.
   **   ~~~   **  ...Occurrence info = SACRAMENTO-EXECUTIVE-ARP ANN CLG 0.4% CONDNS DB=>MCWB, 07/21 00:00 - 00:05
   **   ~~~   ** ... Possible reasons for low outlet air dry-bulb temperatures are: This DX coil
   **   ~~~   **    1) may have a low inlet air dry-bulb temperature. Inlet air temperature = 23.454 C.
   **   ~~~   **    2) may have a low air flow rate per watt of cooling capacity. Check inputs.
   **   ~~~   **    3) is used as part of a HX assisted cooling coil which uses a high sensible effectiveness. Check inputs.
   ** Warning ** CalcDoe2DXCoil: Coil:Cooling:DX:SingleSpeed "BASESYS5 COILCLG-3" - Air-cooled condenser inlet dry-bulb temperature below 0 C. Outdoor dry-bulb temperature = -0.20
   **   ~~~   **  ... Occurrence info = SACRAMENTO-EXECUTIVE-ARP ANN HTG 99.6% CONDNS DB, 01/21 05:04 - 05:05
   **   ~~~   ** ... Operation at low ambient temperatures may require special performance curves.
   ** Warning ** CalcDoe2DXCoil: Coil:Cooling:DX:SingleSpeed "BASESYS5 COILCLG-2" - Air-cooled condenser inlet dry-bulb temperature below 0 C. Outdoor dry-bulb temperature = -0.20
   **   ~~~   **  ... Occurrence info = SACRAMENTO-EXECUTIVE-ARP ANN HTG 99.6% CONDNS DB, 01/21 05:05 - 05:07
   **   ~~~   ** ... Operation at low ambient temperatures may require special performance curves.
   ** Warning ** CalcDoe2DXCoil: Coil:Cooling:DX:SingleSpeed "BASESYS5 COILCLG" - Air-cooled condenser inlet dry-bulb temperature below 0 C. Outdoor dry-bulb temperature = -0.20
   **   ~~~   **  ... Occurrence info = SACRAMENTO-EXECUTIVE-ARP ANN HTG 99.6% CONDNS DB, 01/21 06:10 - 06:12
   **   ~~~   ** ... Operation at low ambient temperatures may require special performance curves.
   ** Warning ** Plant Loop: NONRESBASEGASSHWSYSTEM Demand Side is storing excess heat the majority of the time.
   ** Warning ** Plant Loop: NONRESBASEGASSHWSYSTEM Supply Side is storing excess heat the majority of the time.
   ************* Simulation Error Summary *************
   ** Warning ** The following Report Variables were requested but not generated -- check.rdd file
   **   ~~~   ** Either the IDF did not contain these elements, the variable name is misspelled,
   **   ~~~   ** or the requested variable is an advanced output which requires Output : Diagnostics, DisplayAdvancedReportVariables;
   ************* Key=*, VarName=CHILLER EVAPORATOR COOLING RATE, Frequency=Hourly
   ************* Key=*, VarName=COOLING TOWER HEAT TRANSFER RATE, Frequency=Hourly
   ************* There are 1 unused objects in input.
   ************* Use Output:Diagnostics,DisplayUnusedObjects; to see them.
   ************* There are 11 unused schedules in input.
   ************* There are 11 unused week schedules in input.
   ************* There are 21 unused day schedules in input.
   ************* Use Output:Diagnostics,DisplayUnusedSchedules; to see them.
   *************
   ************* ===== Recurring Error Summary =====
   ************* The following recurring error messages occurred.
   *************
   *************  ** Warning ** CalcDoe2DXCoil: Coil:Cooling:DX:SingleSpeed="BASESYS5 COILCLG" - Air volume flow rate per watt of rated total cooling capacity is out of range error continues...
   *************  **   ~~~   **   This error occurred 4176 total times;
   *************  **   ~~~   **   during Warmup 0 times;
   *************  **   ~~~   **   during Sizing 0 times.
   *************  **   ~~~   **   Max=2.683479E-005  Min=1.373911E-005
   *************
   *************  ** Warning ** CalcDoe2DXCoil: Coil:Cooling:DX:SingleSpeed="BASESYS5 COILCLG-2" - Air volume flow rate per watt of rated total cooling capacity is out of range error continues...
   *************  **   ~~~   **   This error occurred 3758 total times;
   *************  **   ~~~   **   during Warmup 0 times;
   *************  **   ~~~   **   during Sizing 0 times.
   *************  **   ~~~   **   Max=2.683943E-005  Min=1.093870E-005
   *************
   *************  ** Warning ** CalcDoe2DXCoil: Coil:Cooling:DX:SingleSpeed="BASESYS5 COILCLG-3" - Air volume flow rate per watt of rated total cooling capacity is out of range error continues...
   *************  **   ~~~   **   This error occurred 2420 total times;
   *************  **   ~~~   **   during Warmup 0 times;
   *************  **   ~~~   **   during Sizing 0 times.
   *************  **   ~~~   **   Max=2.682548E-005  Min=1.208488E-005
   *************
   *************  ** Warning ** CalcDoe2DXCoil: Coil:Cooling:DX:SingleSpeed="BASESYS5 COILCLG" - Full load outlet temperature indicates a possibility of frost/freeze error continues. Outlet air temperature statistics follow:
   *************  **   ~~~   **   This error occurred 637 total times;
   *************  **   ~~~   **   during Warmup 0 times;
   *************  **   ~~~   **   during Sizing 0 times.
   *************  **   ~~~   **   Max=1.988111  Min=-16.471973
   *************
   *************  ** Warning ** CalcDoe2DXCoil: Coil:Cooling:DX:SingleSpeed="BASESYS5 COILCLG-2" - Full load outlet temperature indicates a possibility of frost/freeze error continues. Outlet air temperature statistics follow:
   *************  **   ~~~   **   This error occurred 587 total times;
   *************  **   ~~~   **   during Warmup 0 times;
   *************  **   ~~~   **   during Sizing 0 times.
   *************  **   ~~~   **   Max=1.989576  Min=-26.646173
   *************
   *************  ** Warning ** CalcDoe2DXCoil: Coil:Cooling:DX:SingleSpeed="BASESYS5 COILCLG-3" - Full load outlet temperature indicates a possibility of frost/freeze error continues. Outlet air temperature statistics follow:
   *************  **   ~~~   **   This error occurred 491 total times;
   *************  **   ~~~   **   during Warmup 0 times;
   *************  **   ~~~   **   during Sizing 0 times.
   *************  **   ~~~   **   Max=1.998872  Min=-21.55541
   *************
   *************  ** Warning ** CalcDoe2DXCoil: Coil:Cooling:DX:SingleSpeed="BASESYS5 COILCLG-3" - Low condenser dry-bulb temperature error continues...
   *************  **   ~~~   **   This error occurred 43 total times;
   *************  **   ~~~   **   during Warmup 0 times;
   *************  **   ~~~   **   during Sizing 0 times.
   *************  **   ~~~   **   Max=-0.2 [C]  Min=-0.2 [C]
   *************
   *************  ** Warning ** CalcDoe2DXCoil: Coil:Cooling:DX:SingleSpeed="BASESYS5 COILCLG-2" - Low condenser dry-bulb temperature error continues...
   *************  **   ~~~   **   This error occurred 43 total times;
   *************  **   ~~~   **   during Warmup 0 times;
   *************  **   ~~~   **   during Sizing 0 times.
   *************  **   ~~~   **   Max=-0.2 [C]  Min=-0.2 [C]
   *************
   *************  ** Warning ** CalcDoe2DXCoil: Coil:Cooling:DX:SingleSpeed="BASESYS5 COILCLG" - Low condenser dry-bulb temperature error continues...
   *************  **   ~~~   **   This error occurred 11 total times;
   *************  **   ~~~   **   during Warmup 0 times;
   *************  **   ~~~   **   during Sizing 0 times.
   *************  **   ~~~   **   Max=-0.2 [C]  Min=-0.2 [C]
   *************
   ************* EnergyPlus Warmup Error Summary. During Warmup: 0 Warning; 0 Severe Errors.
   ************* EnergyPlus Sizing Error Summary. During Sizing: 89 Warning; 0 Severe Errors.
   ************* EnergyPlus Completed Successfully-- 12368 Warning; 0 Severe Errors; Elapsed Time=00hr 00min 24.41sec
