Program Version,EnergyPlus, Version 9.0.1-bb7ca4f0da, YMD=2019.11.07 12:07,
   ************* Beginning Zone Sizing Calculations
   ** Warning ** ProcessScheduleInput: Schedule:Day:Interval="{0EC02A60-6888-444C-AFA1-2A6B73FD2A89}", Blank Schedule Type Limits Name input -- will not be validated.
   ** Warning ** ProcessScheduleInput: Schedule:Day:Interval="{43686407-7585-4924-A9A1-9B3E74B7374F}", Blank Schedule Type Limits Name input -- will not be validated.
   ** Warning ** ProcessScheduleInput: Schedule:Day:Interval="{70763CF7-AE6B-441F-87EC-6887AF1F7D39}", Blank Schedule Type Limits Name input -- will not be validated.
   ** Warning ** ProcessScheduleInput: Schedule:Day:Interval="{BBB4487A-5B23-48BE-8D1B-0D1FDC48D422}", Blank Schedule Type Limits Name input -- will not be validated.
   ** Warning ** ProcessScheduleInput: Schedule:Day:Interval="{ECD0760A-D48A-49B1-A8AE-F6F094C67919}", Blank Schedule Type Limits Name input -- will not be validated.
   ** Warning ** ProcessScheduleInput: Schedule:Year="CORE_ZN TARGET SHW TEMP", Blank Schedule Type Limits Name input -- will not be validated.
   ** Warning ** ProcessScheduleInput: Schedule:Year="PERIMETER_ZN_1 TARGET SHW TEMP", Blank Schedule Type Limits Name input -- will not be validated.
   ** Warning ** ProcessScheduleInput: Schedule:Year="PERIMETER_ZN_2 TARGET SHW TEMP", Blank Schedule Type Limits Name input -- will not be validated.
   ** Warning ** ProcessScheduleInput: Schedule:Year="PERIMETER_ZN_3 TARGET SHW TEMP", Blank Schedule Type Limits Name input -- will not be validated.
   ** Warning ** ProcessScheduleInput: Schedule:Year="PERIMETER_ZN_4 TARGET SHW TEMP", Blank Schedule Type Limits Name input -- will not be validated.
   ** Warning ** ProcessScheduleInput: Schedule:Constant="ALWAYS OFF DISCRETE", Blank Schedule Type Limits Name input -- will not be validated.
   ** Warning ** ProcessScheduleInput: Schedule:Constant="ALWAYS ON CONTINUOUS", Blank Schedule Type Limits Name input -- will not be validated.
   ** Warning ** Weather file location will be used rather than entered (IDF) Location object.
   **   ~~~   ** ..Location object=SACRAMENTO-EXECUTIVE-ARP DESIGN_CONDITIONS
   **   ~~~   ** ..Weather File Location=SACRAMENTO-EXECUTIVE-AP - USA Custom-724830 WMO#=724830
   **   ~~~   ** ..due to location differences, Latitude difference=[8.00E-002] degrees, Longitude difference=[1.00E-002] degrees.
   **   ~~~   ** ..Time Zone difference=[0.0] hour(s), Elevation difference=[26.19] percent, [1.04] meters.
   ************* Note that the following warning(s) may/will occur if you have not enclosed your zone completely.
   ** Warning ** Entered Zone Volumes differ from calculated zone volume(s).
   **   ~~~   ** ...use Output:Diagnostics,DisplayExtraWarnings; to show more details on individual zones.
   ** Warning ** CalculateZoneVolume: 6 zones are not fully enclosed. For more details use:  Output:Diagnostics,DisplayExtrawarnings; 
   ** Warning ** GetSimpleAirModelInputs: ZoneInfiltration:DesignFlowRate="ATTIC SPACE INFILTRATION DESIGN FLOW RATE 1", Design Flow Rate Calculation Method specifies Flow per Exterior Surface Area, but Exterior Wall Area = 0.  0 Infiltration will result.
   ** Warning ** GetSimpleAirModelInputs: ZoneInfiltration:DesignFlowRate="CORE_ZN SPACE INFILTRATION DESIGN FLOW RATE 1", Design Flow Rate Calculation Method specifies Flow per Exterior Surface Area, but Exterior Wall Area = 0.  0 Infiltration will result.
   ************* Beginning System Sizing Calculations
   ************* Beginning Plant Sizing Calculations
   ** Warning ** The Standard Ratings is calculated for Coil:Cooling:DX:SingleSpeed = COREZNCOOLINGCOIL but not at the AHRI test condition due to curve out of bound.
   **   ~~~   **  Review the Standard Ratings calculations in the Engineering Reference for this coil type. Also, use Output:Diagnostics, DisplayExtraWarnings for further guidance.
   ** Warning ** The Standard Ratings is calculated for Coil:Cooling:DX:SingleSpeed = PERIM1ZNCOOLINGCOIL but not at the AHRI test condition due to curve out of bound.
   **   ~~~   **  Review the Standard Ratings calculations in the Engineering Reference for this coil type. Also, use Output:Diagnostics, DisplayExtraWarnings for further guidance.
   ** Warning ** The Standard Ratings is calculated for Coil:Cooling:DX:SingleSpeed = PERIM2ZNCOOLINGCOIL but not at the AHRI test condition due to curve out of bound.
   **   ~~~   **  Review the Standard Ratings calculations in the Engineering Reference for this coil type. Also, use Output:Diagnostics, DisplayExtraWarnings for further guidance.
   ** Warning ** The Standard Ratings is calculated for Coil:Cooling:DX:SingleSpeed = PERIM3ZNCOOLINGCOIL but not at the AHRI test condition due to curve out of bound.
   **   ~~~   **  Review the Standard Ratings calculations in the Engineering Reference for this coil type. Also, use Output:Diagnostics, DisplayExtraWarnings for further guidance.
   ** Warning ** The Standard Ratings is calculated for Coil:Cooling:DX:SingleSpeed = PERIM4ZNCOOLINGCOIL but not at the AHRI test condition due to curve out of bound.
   **   ~~~   **  Review the Standard Ratings calculations in the Engineering Reference for this coil type. Also, use Output:Diagnostics, DisplayExtraWarnings for further guidance.
   ** Warning ** Check input. Pump nominal power or motor efficiency is set to 0, for pump={D086201E-DA4E-432E-915F-A1EE2D6C1635}
   ** Warning ** Output:Meter:MeterFileOnly: invalid Key Name="DISTRICTHEATING:FACILITY" - not found.
   ** Warning ** Output:Meter:MeterFileOnly: invalid Key Name="HEATRECOVERY:DISTRICTCOOLING" - not found.
   ** Warning ** Output:Meter:MeterFileOnly: invalid Key Name="HEATREJECTION:ELECTRICITY" - not found.
   ** Warning ** Output:Meter:MeterFileOnly: invalid Key Name="PROCESS:EXTERIOREQUIPMENT:GAS" - not found.
   ** Warning ** Output:Meter:MeterFileOnly: invalid Key Name="COOLING:DISTRICTHEATING" - not found.
   ** Warning ** Output:Meter:MeterFileOnly: invalid Key Name="HEATREJECTION:GAS" - not found.
   ** Warning ** Output:Meter:MeterFileOnly: invalid Key Name="REFRIGERATION:ELECTRICITY" - not found.
   ** Warning ** Output:Meter:MeterFileOnly: invalid Key Name="EXTERIOREQUIPMENT:ELECTRICITY" - not found.
   ** Warning ** Output:Meter:MeterFileOnly: invalid Key Name="HEATREJECTION:DISTRICTHEATING" - not found.
   ** Warning ** Output:Meter:MeterFileOnly: invalid Key Name="COGENERATION:ELECTRICITY" - not found.
   ** Warning ** Output:Meter:MeterFileOnly: invalid Key Name="EXTERIORLIGHTS:ELECTRICITY" - not found.
   ** Warning ** Output:Meter:MeterFileOnly: invalid Key Name="INTERIOREQUIPMENT:DISTRICTCOOLING" - not found.
   ** Warning ** Output:Meter:MeterFileOnly: invalid Key Name="FANS:GAS" - not found.
   ** Warning ** Output:Meter:MeterFileOnly: invalid Key Name="RECEPTACLE:INTERIOREQUIPMENT:GAS" - not found.
   ** Warning ** Output:Meter:MeterFileOnly: invalid Key Name="HUMIDIFIER:DISTRICTCOOLING" - not found.
   ** Warning ** Output:Meter:MeterFileOnly: invalid Key Name="EXTERIOREQUIPMENT:DISTRICTCOOLING" - not found.
   ** Warning ** Output:Meter:MeterFileOnly: invalid Key Name="INTERIORLIGHTS:GAS" - not found.
   ** Warning ** Output:Meter:MeterFileOnly: invalid Key Name="HUMIDIFIER:ELECTRICITY" - not found.
   ** Warning ** Output:Meter:MeterFileOnly: invalid Key Name="HEATRECOVERY:ELECTRICITY" - not found.
   ** Warning ** Output:Meter:MeterFileOnly: invalid Key Name="EXTERIORLIGHTS:GAS" - not found.
   ** Warning ** Output:Meter:MeterFileOnly: invalid Key Name="DISTRICTCOOLING:FACILITY" - not found.
   ** Warning ** Output:Meter:MeterFileOnly: invalid Key Name="INTERIOREQUIPMENT:GAS" - not found.
   ** Warning ** Output:Meter:MeterFileOnly: invalid Key Name="HUMIDIFIER:GAS" - not found.
   ** Warning ** Output:Meter:MeterFileOnly: invalid Key Name="EXTERIOREQUIPMENT:GAS" - not found.
   ** Warning ** Output:Meter:MeterFileOnly: invalid Key Name="PUMPS:GAS" - not found.
   ** Warning ** Output:Meter:MeterFileOnly: invalid Key Name="COGENERATION:GAS" - not found.
   ** Warning ** Output:Meter:MeterFileOnly: invalid Key Name="COOLING:GAS" - not found.
   ** Warning ** Output:Meter:MeterFileOnly: invalid Key Name="COOLING:DISTRICTCOOLING" - not found.
   ** Warning ** Output:Meter:MeterFileOnly: invalid Key Name="HEATRECOVERY:GAS" - not found.
   ** Warning ** Output:Meter:MeterFileOnly: invalid Key Name="WATERSYSTEMS:GAS" - not found.
   ** Warning ** Output:Meter:MeterFileOnly: invalid Key Name="COGENERATION:DISTRICTHEATING" - not found.
   ** Warning ** Output:Meter:MeterFileOnly: invalid Key Name="REFRIGERATION:GAS" - not found.
   ** Warning ** Output:Meter:MeterFileOnly: invalid Key Name="INTERIORLIGHTS:DISTRICTCOOLING" - not found.
   ** Warning ** Output:Meter:MeterFileOnly: invalid Key Name="EXTERIORLIGHTS:DISTRICTCOOLING" - not found.
   ** Warning ** Output:Meter:MeterFileOnly: invalid Key Name="INTERIOREQUIPMENT:DISTRICTHEATING" - not found.
   ** Warning ** Output:Meter:MeterFileOnly: invalid Key Name="FANS:DISTRICTCOOLING" - not found.
   ** Warning ** Output:Meter:MeterFileOnly: invalid Key Name="EXTERIORLIGHTS:DISTRICTHEATING" - not found.
   ** Warning ** Output:Meter:MeterFileOnly: invalid Key Name="PUMPS:DISTRICTCOOLING" - not found.
   ** Warning ** Output:Meter:MeterFileOnly: invalid Key Name="HEATING:DISTRICTCOOLING" - not found.
   ** Warning ** Output:Meter:MeterFileOnly: invalid Key Name="HEATREJECTION:DISTRICTCOOLING" - not found.
   ** Warning ** Output:Meter:MeterFileOnly: invalid Key Name="REFRIGERATION:DISTRICTCOOLING" - not found.
   ** Warning ** Output:Meter:MeterFileOnly: invalid Key Name="WATERSYSTEMS:DISTRICTCOOLING" - not found.
   ** Warning ** Output:Meter:MeterFileOnly: invalid Key Name="COGENERATION:DISTRICTCOOLING" - not found.
   ** Warning ** Output:Meter:MeterFileOnly: invalid Key Name="INTERIORLIGHTS:DISTRICTHEATING" - not found.
   ** Warning ** Output:Meter:MeterFileOnly: invalid Key Name="EXTERIOREQUIPMENT:DISTRICTHEATING" - not found.
   ** Warning ** Output:Meter:MeterFileOnly: invalid Key Name="HEATRECOVERY:DISTRICTHEATING" - not found.
   ** Warning ** Output:Meter:MeterFileOnly: invalid Key Name="FANS:DISTRICTHEATING" - not found.
   ** Warning ** Output:Meter:MeterFileOnly: invalid Key Name="PUMPS:DISTRICTHEATING" - not found.
   ** Warning ** Output:Meter:MeterFileOnly: invalid Key Name="HEATING:DISTRICTHEATING" - not found.
   ** Warning ** Output:Meter:MeterFileOnly: invalid Key Name="HUMIDIFIER:DISTRICTHEATING" - not found.
   ** Warning ** Output:Meter:MeterFileOnly: invalid Key Name="WATERSYSTEMS:DISTRICTHEATING" - not found.
   ** Warning ** Output:Meter:MeterFileOnly: invalid Key Name="REFRIGERATION:DISTRICTHEATING" - not found.
   ** Warning ** Output:Meter:MeterFileOnly: invalid Key Name="PROCESS:INTERIOREQUIPMENT:ELECTRICITY" - not found.
   ** Warning ** Output:Meter:MeterFileOnly: invalid Key Name="REFRIG:INTERIOREQUIPMENT:ELECTRICITY" - not found.
   ** Warning ** Output:Meter:MeterFileOnly: invalid Key Name="INTERNAL TRANSPORT:INTERIOREQUIPMENT:ELECTRICITY" - not found.
   ** Warning ** Output:Meter:MeterFileOnly: invalid Key Name="RECEPTACLE:EXTERIOREQUIPMENT:ELECTRICITY" - not found.
   ** Warning ** Output:Meter:MeterFileOnly: invalid Key Name="PROCESS:EXTERIOREQUIPMENT:ELECTRICITY" - not found.
   ** Warning ** Output:Meter:MeterFileOnly: invalid Key Name="REFRIG:EXTERIOREQUIPMENT:ELECTRICITY" - not found.
   ** Warning ** Output:Meter:MeterFileOnly: invalid Key Name="PROCESS:INTERIOREQUIPMENT:GAS" - not found.
   ** Warning ** Output:Meter:MeterFileOnly: invalid Key Name="RECEPTACLE:EXTERIOREQUIPMENT:GAS" - not found.
   ** Warning ** Output:Meter:MeterFileOnly: invalid Key Name="NONCOMPLIANCELTG:INTERIORLIGHTS:ELECTRICITY" - not found.
   ** Warning ** Output:Meter:MeterFileOnly: invalid Key Name="REG LTG:EXTERIORLIGHTS:ELECTRICITY" - not found.
   ** Warning ** Output:Meter:MeterFileOnly: invalid Key Name="NONREG LTG:EXTERIORLIGHTS:ELECTRICITY" - not found.
   ************* Testing Individual Branch Integrity
   ************* All Branches passed integrity testing
   ************* Testing Individual Supply Air Path Integrity
   ************* All Supply Air Paths passed integrity testing
   ************* Testing Individual Return Air Path Integrity
   ************* All Return Air Paths passed integrity testing
   ************* No node connection errors were found.
   ************* Beginning Simulation
   ** Warning ** CalcDoe2DXCoil: Coil:Cooling:DX:SingleSpeed "COREZNCOOLINGCOIL" - Full load outlet air dry-bulb temperature < 2C. This indicates the possibility of coil frost/freeze. Outlet temperature = 1.63 C.
   **   ~~~   **  ...Occurrence info = SACRAMENTO-EXECUTIVE_724830_CZ2010, 01/04 22:38 - 22:45
   **   ~~~   ** ... Possible reasons for low outlet air dry-bulb temperatures are: This DX coil
   **   ~~~   **    1) may have a low inlet air dry-bulb temperature. Inlet air temperature = 15.760 C.
   **   ~~~   **    2) may have a low air flow rate per watt of cooling capacity. Check inputs.
   **   ~~~   **    3) is used as part of a HX assisted cooling coil which uses a high sensible effectiveness. Check inputs.
   ** Warning ** CalcDoe2DXCoil: Coil:Cooling:DX:SingleSpeed "COREZNCOOLINGCOIL" - Air-cooled condenser inlet dry-bulb temperature below 0 C. Outdoor dry-bulb temperature = -0.65
   **   ~~~   **  ... Occurrence info = SACRAMENTO-EXECUTIVE_724830_CZ2010, 02/08 05:15 - 05:20
   **   ~~~   ** ... Operation at low ambient temperatures may require special performance curves.
   ************* Simulation Error Summary *************
   ************* There are 1 unused objects in input.
   ************* Use Output:Diagnostics,DisplayUnusedObjects; to see them.
   ************* There are 5 unused schedules in input.
   ************* There are 5 unused week schedules in input.
   ************* There are 7 unused day schedules in input.
   ************* Use Output:Diagnostics,DisplayUnusedSchedules; to see them.
   *************
   ************* ===== Recurring Error Summary =====
   ************* The following recurring error messages occurred.
   *************
   *************  ** Warning ** CalcDoe2DXCoil: Coil:Cooling:DX:SingleSpeed="COREZNCOOLINGCOIL" - Full load outlet temperature indicates a possibility of frost/freeze error continues. Outlet air temperature statistics follow:
   *************  **   ~~~   **   This error occurred 21 total times;
   *************  **   ~~~   **   during Warmup 0 times;
   *************  **   ~~~   **   during Sizing 0 times.
   *************  **   ~~~   **   Max=1.946536  Min=-0.21161
   *************
   *************  ** Warning ** CalcDoe2DXCoil: Coil:Cooling:DX:SingleSpeed="COREZNCOOLINGCOIL" - Low condenser dry-bulb temperature error continues...
   *************  **   ~~~   **   This error occurred 5 total times;
   *************  **   ~~~   **   during Warmup 0 times;
   *************  **   ~~~   **   during Sizing 0 times.
   *************  **   ~~~   **   Max=-2.500000E-002 [C]  Min=-0.7 [C]
   *************
   ************* EnergyPlus Warmup Error Summary. During Warmup: 0 Warning; 0 Severe Errors.
   ************* EnergyPlus Sizing Error Summary. During Sizing: 17 Warning; 0 Severe Errors.
   ************* EnergyPlus Completed Successfully-- 112 Warning; 0 Severe Errors; Elapsed Time=00hr 00min 12.82sec
