Program Version,EnergyPlus, Version 9.0.1-bb7ca4f0da, YMD=2019.12.17 18:54,
   ************* Beginning Zone Sizing Calculations
   ** Warning ** ProcessScheduleInput: Schedule:Day:Interval="{01AC2AA7-AC58-447E-A30B-E5487E5E4E48}", Blank Schedule Type Limits Name input -- will not be validated.
   ** Warning ** ProcessScheduleInput: Schedule:Day:Interval="{077B63B8-0D7C-4507-87E5-DF3D494EA346}", Blank Schedule Type Limits Name input -- will not be validated.
   ** Warning ** ProcessScheduleInput: Schedule:Day:Interval="{0D50BC43-84B4-4E3B-A75D-955D3C7D20D5}", Blank Schedule Type Limits Name input -- will not be validated.
   ** Warning ** ProcessScheduleInput: Schedule:Day:Interval="{0E1F1390-E4CB-45F7-A6A8-8BBC47F70B5A}", Blank Schedule Type Limits Name input -- will not be validated.
   ** Warning ** ProcessScheduleInput: Schedule:Day:Interval="{2B88D6AB-494E-4DEE-8EA7-294FDE41F6A6}", Blank Schedule Type Limits Name input -- will not be validated.
   ** Warning ** ProcessScheduleInput: Schedule:Day:Interval="{2DC1F5D2-8D41-47C9-8DF5-59609EE29AAF}", Blank Schedule Type Limits Name input -- will not be validated.
   ** Warning ** ProcessScheduleInput: Schedule:Day:Interval="{4B7A2E48-7700-440C-BF97-BF73D7516FC4}", Blank Schedule Type Limits Name input -- will not be validated.
   ** Warning ** ProcessScheduleInput: Schedule:Day:Interval="{58EB348F-AD5A-4D2D-B87A-D41AE9B137DD}", Blank Schedule Type Limits Name input -- will not be validated.
   ** Warning ** ProcessScheduleInput: Schedule:Day:Interval="{729B60F2-5BB0-421D-9DF3-630725DBF81F}", Blank Schedule Type Limits Name input -- will not be validated.
   ** Warning ** ProcessScheduleInput: Schedule:Day:Interval="{7322FA82-0F6F-42CC-86E4-362219CCDE90}", Blank Schedule Type Limits Name input -- will not be validated.
   ** Warning ** ProcessScheduleInput: Schedule:Day:Interval="{7471D1F4-15FD-4421-B6C5-C96A851F8F59}", Blank Schedule Type Limits Name input -- will not be validated.
   ** Warning ** ProcessScheduleInput: Schedule:Day:Interval="{91ACA038-5597-4CEA-9E56-295A33035557}", Blank Schedule Type Limits Name input -- will not be validated.
   ** Warning ** ProcessScheduleInput: Schedule:Day:Interval="{97209CDC-D25B-4003-BF27-BC3F91E566FD}", Blank Schedule Type Limits Name input -- will not be validated.
   ** Warning ** ProcessScheduleInput: Schedule:Day:Interval="{9D2AC376-5059-4413-A204-A12C9FB4FBD0}", Blank Schedule Type Limits Name input -- will not be validated.
   ** Warning ** ProcessScheduleInput: Schedule:Day:Interval="{9FF33672-EB3A-434D-8294-D64A57D7AFF6}", Blank Schedule Type Limits Name input -- will not be validated.
   ** Warning ** ProcessScheduleInput: Schedule:Day:Interval="{A90D3F2C-7BCD-4BD4-B9D7-D5DF2FA420DD}", Blank Schedule Type Limits Name input -- will not be validated.
   ** Warning ** ProcessScheduleInput: Schedule:Day:Interval="{AA327684-9235-4FDB-A52A-F63AB833EB15}", Blank Schedule Type Limits Name input -- will not be validated.
   ** Warning ** ProcessScheduleInput: Schedule:Day:Interval="{AF098935-2641-469F-A9B1-AC318A029E61}", Blank Schedule Type Limits Name input -- will not be validated.
   ** Warning ** ProcessScheduleInput: Schedule:Day:Interval="{B639D841-78CD-4DA9-90D1-288329A3A31D}", Blank Schedule Type Limits Name input -- will not be validated.
   ** Warning ** ProcessScheduleInput: Schedule:Day:Interval="{B8624548-E862-4D99-B653-93428D23ED2F}", Blank Schedule Type Limits Name input -- will not be validated.
   ** Warning ** ProcessScheduleInput: Schedule:Day:Interval="{B90DAF34-754D-4A42-9B6B-2514A496BFCC}", Blank Schedule Type Limits Name input -- will not be validated.
   ** Warning ** ProcessScheduleInput: Schedule:Day:Interval="{D126E33E-0327-4018-8F39-2E3486E2A4E7}", Blank Schedule Type Limits Name input -- will not be validated.
   ** Warning ** ProcessScheduleInput: Schedule:Day:Interval="{D42BC33E-2A91-4640-B2DE-0896AB082545}", Blank Schedule Type Limits Name input -- will not be validated.
   ** Warning ** ProcessScheduleInput: Schedule:Day:Interval="{DA8895AF-BC71-403F-8062-1A52F638C8F3}", Blank Schedule Type Limits Name input -- will not be validated.
   ** Warning ** ProcessScheduleInput: Schedule:Day:Interval="{E4A44EE5-532C-45DC-8389-1FA5B6595C46}", Blank Schedule Type Limits Name input -- will not be validated.
   ** Warning ** ProcessScheduleInput: Schedule:Day:Interval="{E8F2A7C1-6BEA-47C6-8759-89D797BA95BD}", Blank Schedule Type Limits Name input -- will not be validated.
   ** Warning ** ProcessScheduleInput: Schedule:Day:Interval="{EBC816A3-B2AC-42D0-BA6F-AEDFAF3E8745}", Blank Schedule Type Limits Name input -- will not be validated.
   ** Warning ** ProcessScheduleInput: Schedule:Day:Interval="{EFB3F6F8-0230-4451-8CE4-2F3D7FA6B6DA}", Blank Schedule Type Limits Name input -- will not be validated.
   ** Warning ** ProcessScheduleInput: Schedule:Year="F1 BUSINESS CENTER TARGET SHW TEMP", Blank Schedule Type Limits Name input -- will not be validated.
   ** Warning ** ProcessScheduleInput: Schedule:Year="F1 ELEVATOR CORE TARGET SHW TEMP", Blank Schedule Type Limits Name input -- will not be validated.
   ** Warning ** ProcessScheduleInput: Schedule:Year="F1 ELEVATOR N TARGET SHW TEMP", Blank Schedule Type Limits Name input -- will not be validated.
   ** Warning ** ProcessScheduleInput: Schedule:Year="F1 ELEVATOR S TARGET SHW TEMP", Blank Schedule Type Limits Name input -- will not be validated.
   ** Warning ** ProcessScheduleInput: Schedule:Year="F1 FITNESS CENTER TARGET SHW TEMP", Blank Schedule Type Limits Name input -- will not be validated.
   ** Warning ** ProcessScheduleInput: Schedule:Year="F1 LEASING OFFICE TARGET SHW TEMP", Blank Schedule Type Limits Name input -- will not be validated.
   ** Warning ** ProcessScheduleInput: Schedule:Year="F1 LOUNGE TARGET SHW TEMP", Blank Schedule Type Limits Name input -- will not be validated.
   ** Warning ** ProcessScheduleInput: Schedule:Year="F1 MECHANICAL ROOM TARGET SHW TEMP", Blank Schedule Type Limits Name input -- will not be validated.
   ** Warning ** ProcessScheduleInput: Schedule:Year="F1 RETAIL N CORE TARGET SHW TEMP", Blank Schedule Type Limits Name input -- will not be validated.
   ** Warning ** ProcessScheduleInput: Schedule:Year="F1 RETAIL NE CORE TARGET SHW TEMP", Blank Schedule Type Limits Name input -- will not be validated.
   ** Warning ** ProcessScheduleInput: Schedule:Year="F1 RETAIL NE INNER TARGET SHW TEMP", Blank Schedule Type Limits Name input -- will not be validated.
   ** Warning ** ProcessScheduleInput: Schedule:Year="F1 RETAIL NE OUTER TARGET SHW TEMP", Blank Schedule Type Limits Name input -- will not be validated.
   ** Warning ** ProcessScheduleInput: Schedule:Year="F1 RETAIL NW INNER CORE TARGET SHW TEMP", Blank Schedule Type Limits Name input -- will not be validated.
   ** Warning ** ProcessScheduleInput: Schedule:Year="F1 RETAIL NW OUTER CORE TARGET SHW TEMP", Blank Schedule Type Limits Name input -- will not be validated.
   ** Warning ** ProcessScheduleInput: Schedule:Year="F1 RETAIL NW OUTER TARGET SHW TEMP", Blank Schedule Type Limits Name input -- will not be validated.
   ** Warning ** ProcessScheduleInput: Schedule:Year="F1 RETAIL SE BOTTOM TARGET SHW TEMP", Blank Schedule Type Limits Name input -- will not be validated.
   ** Warning ** ProcessScheduleInput: Schedule:Year="F1 RETAIL SE TOP TARGET SHW TEMP", Blank Schedule Type Limits Name input -- will not be validated.
   ** Warning ** ProcessScheduleInput: Schedule:Year="F1 RETAIL SW BOTTOM TARGET SHW TEMP", Blank Schedule Type Limits Name input -- will not be validated.
   ** Warning ** ProcessScheduleInput: Schedule:Year="F1 RETAIL SW CORE TARGET SHW TEMP", Blank Schedule Type Limits Name input -- will not be validated.
   ** Warning ** ProcessScheduleInput: Schedule:Year="F1 RETAIL SW TOP TARGET SHW TEMP", Blank Schedule Type Limits Name input -- will not be validated.
   ** Warning ** ProcessScheduleInput: Schedule:Year="F2-4 ELEVATOR CORE TARGET SHW TEMP", Blank Schedule Type Limits Name input -- will not be validated.
   ** Warning ** ProcessScheduleInput: Schedule:Year="F2-4 ELEVATOR N TARGET SHW TEMP", Blank Schedule Type Limits Name input -- will not be validated.
   ** Warning ** ProcessScheduleInput: Schedule:Year="F2-4 ELEVATOR S TARGET SHW TEMP", Blank Schedule Type Limits Name input -- will not be validated.
   ** Warning ** ProcessScheduleInput: Schedule:Year="F2-4 LAUNDRY TARGET SHW TEMP", Blank Schedule Type Limits Name input -- will not be validated.
   ** Warning ** ProcessScheduleInput: Schedule:Year="F5 ELEVATOR CORE TARGET SHW TEMP", Blank Schedule Type Limits Name input -- will not be validated.
   ** Warning ** ProcessScheduleInput: Schedule:Year="F5 ELEVATOR N TARGET SHW TEMP", Blank Schedule Type Limits Name input -- will not be validated.
   ** Warning ** ProcessScheduleInput: Schedule:Year="F5 ELEVATOR S TARGET SHW TEMP", Blank Schedule Type Limits Name input -- will not be validated.
   ** Warning ** ProcessScheduleInput: Schedule:Year="F5 LAUNDRY TARGET SHW TEMP", Blank Schedule Type Limits Name input -- will not be validated.
   ** Warning ** ProcessScheduleInput: Schedule:Constant="ALWAYS OFF DISCRETE", Blank Schedule Type Limits Name input -- will not be validated.
   ** Warning ** ProcessScheduleInput: Schedule:Constant="ALWAYS ON CONTINUOUS", Blank Schedule Type Limits Name input -- will not be validated.
   ** Warning ** Weather file location will be used rather than entered (IDF) Location object.
   **   ~~~   ** ..Location object=SACRAMENTO-EXECUTIVE-ARP DESIGN_CONDITIONS
   **   ~~~   ** ..Weather File Location=SACRAMENTO-EXECUTIVE-AP - USA Custom-724830 WMO#=724830
   **   ~~~   ** ..due to location differences, Latitude difference=[0.00] degrees, Longitude difference=[0.00] degrees.
   **   ~~~   ** ..Time Zone difference=[0.0] hour(s), Elevation difference=[26.19] percent, [1.04] meters.
   ** Warning ** CalculateZoneVolume: 22 zones are not fully enclosed. For more details use:  Output:Diagnostics,DisplayExtrawarnings; 
   ** Warning ** GetDaylightingControls: Fraction of Zone controlled by the Daylighting reference points is < 1.0.
   **   ~~~   ** ..discovered in "Daylighting:Controls" for Zone="THERMAL ZONE: F1 CORRIDOR", only 0.28 of the zone is controlled.
   ** Warning ** GetDaylightingControls: Fraction of Zone controlled by the Daylighting reference points is < 1.0.
   **   ~~~   ** ..discovered in "Daylighting:Controls" for Zone="THERMAL ZONE: F1 RETAIL N-NW", only 0.10 of the zone is controlled.
   ** Warning ** GetDaylightingControls: Fraction of Zone controlled by the Daylighting reference points is < 1.0.
   **   ~~~   ** ..discovered in "Daylighting:Controls" for Zone="THERMAL ZONE: F1 RETAIL NE", only 0.14 of the zone is controlled.
   ** Warning ** GetDaylightingControls: Fraction of Zone controlled by the Daylighting reference points is < 1.0.
   **   ~~~   ** ..discovered in "Daylighting:Controls" for Zone="THERMAL ZONE: F1 RETAIL SE", only 0.40 of the zone is controlled.
   ** Warning ** GetDaylightingControls: Fraction of Zone controlled by the Daylighting reference points is < 1.0.
   **   ~~~   ** ..discovered in "Daylighting:Controls" for Zone="THERMAL ZONE: F1 RETAIL SW", only 0.36 of the zone is controlled.
   ** Warning ** GetSimpleAirModelInputs: ZoneInfiltration:DesignFlowRate="F1 MECHANICAL ROOM SPACE INFILTRATION DESIGN FLOW RATE 1", Design Flow Rate Calculation Method specifies Flow per Exterior Surface Area, but Exterior Wall Area = 0.  0 Infiltration will result.
   ** Warning ** GetSimpleAirModelInputs: ZoneInfiltration:DesignFlowRate="PARKING GARAGE SPACE INFILTRATION DESIGN FLOW RATE 1", Design Flow Rate Calculation Method specifies Flow per Exterior Surface Area, but Exterior Wall Area = 0.  0 Infiltration will result.
   ** Warning ** SetUpZoneSizingArrays: Requested Sizing for Zone="THERMAL ZONE: PARKING GARAGE", Zone has no thermostat (ref: ZoneControl:Thermostat, et al)
   ** Warning ** Calculated design cooling load for zone=THERMAL ZONE: PARKING GARAGE is zero.
   **   ~~~   ** Check Sizing:Zone and ZoneControl:Thermostat inputs.
   ** Warning ** Calculated design heating load for zone=THERMAL ZONE: PARKING GARAGE is zero.
   **   ~~~   ** Check Sizing:Zone and ZoneControl:Thermostat inputs.
   ************* Beginning System Sizing Calculations
   ** Warning ** Since Zone Minimum Air Flow Input Method = FIXEDFLOWRATE, input for Constant Minimum Air Flow Fraction will be ignored.
   **   ~~~   ** Occurs in AirTerminal:SingleDuct:VAV:Reheat = BASEVAV TRMLUNIT
   ** Warning ** Since Damper Heating Action = REVERSE, input for Maximum Flow Fraction During Reheat will be ignored.
   **   ~~~   ** Occurs in AirTerminal:SingleDuct:VAV:Reheat = BASEVAV TRMLUNIT
   ** Warning ** Since Zone Minimum Air Flow Input Method = FIXEDFLOWRATE, input for Constant Minimum Air Flow Fraction will be ignored.
   **   ~~~   ** Occurs in AirTerminal:SingleDuct:VAV:Reheat = BASEVAV TRMLUNIT-2
   ** Warning ** Since Damper Heating Action = REVERSE, input for Maximum Flow Fraction During Reheat will be ignored.
   **   ~~~   ** Occurs in AirTerminal:SingleDuct:VAV:Reheat = BASEVAV TRMLUNIT-2
   ** Warning ** Since Zone Minimum Air Flow Input Method = FIXEDFLOWRATE, input for Constant Minimum Air Flow Fraction will be ignored.
   **   ~~~   ** Occurs in AirTerminal:SingleDuct:VAV:Reheat = BASEVAV TRMLUNIT-4
   ** Warning ** Since Damper Heating Action = REVERSE, input for Maximum Flow Fraction During Reheat will be ignored.
   **   ~~~   ** Occurs in AirTerminal:SingleDuct:VAV:Reheat = BASEVAV TRMLUNIT-4
   ** Warning ** Since Zone Minimum Air Flow Input Method = FIXEDFLOWRATE, input for Constant Minimum Air Flow Fraction will be ignored.
   **   ~~~   ** Occurs in AirTerminal:SingleDuct:VAV:Reheat = BASEVAV TRMLUNIT-5
   ** Warning ** Since Damper Heating Action = REVERSE, input for Maximum Flow Fraction During Reheat will be ignored.
   **   ~~~   ** Occurs in AirTerminal:SingleDuct:VAV:Reheat = BASEVAV TRMLUNIT-5
   ** Warning ** Since Zone Minimum Air Flow Input Method = FIXEDFLOWRATE, input for Constant Minimum Air Flow Fraction will be ignored.
   **   ~~~   ** Occurs in AirTerminal:SingleDuct:VAV:Reheat = BASEVAV TRMLUNIT-3
   ** Warning ** Since Damper Heating Action = REVERSE, input for Maximum Flow Fraction During Reheat will be ignored.
   **   ~~~   ** Occurs in AirTerminal:SingleDuct:VAV:Reheat = BASEVAV TRMLUNIT-3
   ** Warning ** Since Zone Minimum Air Flow Input Method = FIXEDFLOWRATE, input for Constant Minimum Air Flow Fraction will be ignored.
   **   ~~~   ** Occurs in AirTerminal:SingleDuct:VAV:Reheat = BASEVAV TRMLUNIT-6
   ** Warning ** Since Damper Heating Action = REVERSE, input for Maximum Flow Fraction During Reheat will be ignored.
   **   ~~~   ** Occurs in AirTerminal:SingleDuct:VAV:Reheat = BASEVAV TRMLUNIT-6
   ** Warning ** Since Zone Minimum Air Flow Input Method = FIXEDFLOWRATE, input for Constant Minimum Air Flow Fraction will be ignored.
   **   ~~~   ** Occurs in AirTerminal:SingleDuct:VAV:Reheat = BASEVAV TRMLUNIT-7
   ** Warning ** Since Damper Heating Action = REVERSE, input for Maximum Flow Fraction During Reheat will be ignored.
   **   ~~~   ** Occurs in AirTerminal:SingleDuct:VAV:Reheat = BASEVAV TRMLUNIT-7
   ** Warning ** Since Zone Minimum Air Flow Input Method = FIXEDFLOWRATE, input for Constant Minimum Air Flow Fraction will be ignored.
   **   ~~~   ** Occurs in AirTerminal:SingleDuct:VAV:Reheat = BASEVAV TRMLUNIT-8
   ** Warning ** Since Damper Heating Action = REVERSE, input for Maximum Flow Fraction During Reheat will be ignored.
   **   ~~~   ** Occurs in AirTerminal:SingleDuct:VAV:Reheat = BASEVAV TRMLUNIT-8
   ** Warning ** Since Zone Minimum Air Flow Input Method = FIXEDFLOWRATE, input for Constant Minimum Air Flow Fraction will be ignored.
   **   ~~~   ** Occurs in AirTerminal:SingleDuct:VAV:Reheat = BASEVAV TRMLUNIT-9
   ** Warning ** Since Damper Heating Action = REVERSE, input for Maximum Flow Fraction During Reheat will be ignored.
   **   ~~~   ** Occurs in AirTerminal:SingleDuct:VAV:Reheat = BASEVAV TRMLUNIT-9
   ** Warning ** Since Zone Minimum Air Flow Input Method = FIXEDFLOWRATE, input for Constant Minimum Air Flow Fraction will be ignored.
   **   ~~~   ** Occurs in AirTerminal:SingleDuct:VAV:Reheat = BASEVAV TRMLUNIT-10
   ** Warning ** Since Damper Heating Action = REVERSE, input for Maximum Flow Fraction During Reheat will be ignored.
   **   ~~~   ** Occurs in AirTerminal:SingleDuct:VAV:Reheat = BASEVAV TRMLUNIT-10
   ** Warning ** GetDXCoils: Coil:Heating:DX:SingleSpeed="DOAS1 COILHTG" curve values
   **   ~~~   ** ... Energy Input Ratio Function of Flow Fraction Curve Name = COILHTGHPEIRRATIO_FCFMRATIO output is not equal to 1.0 (+ or - 10%) at rated conditions.
   **   ~~~   ** ... Curve output at rated conditions = 1.380
   ************* Beginning Plant Sizing Calculations
   ** Warning ** The Standard Ratings is calculated for Coil:Cooling:DX:SingleSpeed = COILCOOLING 3 but not at the AHRI test condition due to curve out of bound.
   **   ~~~   **  Review the Standard Ratings calculations in the Engineering Reference for this coil type. Also, use Output:Diagnostics, DisplayExtraWarnings for further guidance.
   ** Warning ** The Standard Ratings is calculated for Coil:Cooling:DX:SingleSpeed = COILCOOLING 1 but not at the AHRI test condition due to curve out of bound.
   **   ~~~   **  Review the Standard Ratings calculations in the Engineering Reference for this coil type. Also, use Output:Diagnostics, DisplayExtraWarnings for further guidance.
   ** Warning ** The Standard Ratings is calculated for Coil:Cooling:DX:SingleSpeed = COILCOOLING 2 but not at the AHRI test condition due to curve out of bound.
   **   ~~~   **  Review the Standard Ratings calculations in the Engineering Reference for this coil type. Also, use Output:Diagnostics, DisplayExtraWarnings for further guidance.
   ** Warning ** The Standard Ratings is calculated for Coil:Cooling:DX:SingleSpeed = COILCOOLING 4 but not at the AHRI test condition due to curve out of bound.
   **   ~~~   **  Review the Standard Ratings calculations in the Engineering Reference for this coil type. Also, use Output:Diagnostics, DisplayExtraWarnings for further guidance.
   ** Warning ** The Standard Ratings is calculated for Coil:Cooling:DX:SingleSpeed = COILCOOLING 5 but not at the AHRI test condition due to curve out of bound.
   **   ~~~   **  Review the Standard Ratings calculations in the Engineering Reference for this coil type. Also, use Output:Diagnostics, DisplayExtraWarnings for further guidance.
   ** Warning ** The Standard Ratings is calculated for Coil:Cooling:DX:SingleSpeed = COILCOOLING 6 but not at the AHRI test condition due to curve out of bound.
   **   ~~~   **  Review the Standard Ratings calculations in the Engineering Reference for this coil type. Also, use Output:Diagnostics, DisplayExtraWarnings for further guidance.
   ** Warning ** The Standard Ratings is calculated for Coil:Cooling:DX:SingleSpeed = COILCOOLING 7 but not at the AHRI test condition due to curve out of bound.
   **   ~~~   **  Review the Standard Ratings calculations in the Engineering Reference for this coil type. Also, use Output:Diagnostics, DisplayExtraWarnings for further guidance.
   ** Warning ** The Standard Ratings is calculated for Coil:Cooling:DX:SingleSpeed = COILCOOLING 8 but not at the AHRI test condition due to curve out of bound.
   **   ~~~   **  Review the Standard Ratings calculations in the Engineering Reference for this coil type. Also, use Output:Diagnostics, DisplayExtraWarnings for further guidance.
   ** Warning ** The Standard Ratings is calculated for Coil:Cooling:DX:SingleSpeed = COILCOOLING 9 but not at the AHRI test condition due to curve out of bound.
   **   ~~~   **  Review the Standard Ratings calculations in the Engineering Reference for this coil type. Also, use Output:Diagnostics, DisplayExtraWarnings for further guidance.
   ** Warning ** The Standard Ratings is calculated for Coil:Cooling:DX:SingleSpeed = COILCOOLING 10 but not at the AHRI test condition due to curve out of bound.
   **   ~~~   **  Review the Standard Ratings calculations in the Engineering Reference for this coil type. Also, use Output:Diagnostics, DisplayExtraWarnings for further guidance.
   ** Warning ** The Standard Ratings is calculated for Coil:Cooling:DX:SingleSpeed = COILCOOLING 11 but not at the AHRI test condition due to curve out of bound.
   **   ~~~   **  Review the Standard Ratings calculations in the Engineering Reference for this coil type. Also, use Output:Diagnostics, DisplayExtraWarnings for further guidance.
   ** Warning ** The Standard Ratings is calculated for Coil:Cooling:DX:SingleSpeed = COILCOOLING 14 but not at the AHRI test condition due to curve out of bound.
   **   ~~~   **  Review the Standard Ratings calculations in the Engineering Reference for this coil type. Also, use Output:Diagnostics, DisplayExtraWarnings for further guidance.
   ** Warning ** The Standard Ratings is calculated for Coil:Cooling:DX:SingleSpeed = COILCOOLING 12 but not at the AHRI test condition due to curve out of bound.
   **   ~~~   **  Review the Standard Ratings calculations in the Engineering Reference for this coil type. Also, use Output:Diagnostics, DisplayExtraWarnings for further guidance.
   ** Warning ** The Standard Ratings is calculated for Coil:Cooling:DX:SingleSpeed = COILCOOLING 13 but not at the AHRI test condition due to curve out of bound.
   **   ~~~   **  Review the Standard Ratings calculations in the Engineering Reference for this coil type. Also, use Output:Diagnostics, DisplayExtraWarnings for further guidance.
   ** Warning ** The Standard Ratings is calculated for Coil:Cooling:DX:SingleSpeed = COILCOOLING 15 but not at the AHRI test condition due to curve out of bound.
   **   ~~~   **  Review the Standard Ratings calculations in the Engineering Reference for this coil type. Also, use Output:Diagnostics, DisplayExtraWarnings for further guidance.
   ** Warning ** The Standard Ratings is calculated for Coil:Cooling:DX:SingleSpeed = COILCOOLING 16 but not at the AHRI test condition due to curve out of bound.
   **   ~~~   **  Review the Standard Ratings calculations in the Engineering Reference for this coil type. Also, use Output:Diagnostics, DisplayExtraWarnings for further guidance.
   ** Warning ** The Standard Ratings is calculated for Coil:Cooling:DX:SingleSpeed = COILCOOLING 17 but not at the AHRI test condition due to curve out of bound.
   **   ~~~   **  Review the Standard Ratings calculations in the Engineering Reference for this coil type. Also, use Output:Diagnostics, DisplayExtraWarnings for further guidance.
   ** Warning ** The Standard Ratings is calculated for Coil:Cooling:DX:SingleSpeed = COILCOOLING 18 but not at the AHRI test condition due to curve out of bound.
   **   ~~~   **  Review the Standard Ratings calculations in the Engineering Reference for this coil type. Also, use Output:Diagnostics, DisplayExtraWarnings for further guidance.
   ** Warning ** The Standard Ratings is calculated for Coil:Cooling:DX:SingleSpeed = COILCOOLING 19 but not at the AHRI test condition due to curve out of bound.
   **   ~~~   **  Review the Standard Ratings calculations in the Engineering Reference for this coil type. Also, use Output:Diagnostics, DisplayExtraWarnings for further guidance.
   ** Warning ** The Standard Ratings is calculated for Coil:Cooling:DX:SingleSpeed = COILCOOLING 20 but not at the AHRI test condition due to curve out of bound.
   **   ~~~   **  Review the Standard Ratings calculations in the Engineering Reference for this coil type. Also, use Output:Diagnostics, DisplayExtraWarnings for further guidance.
   ** Warning ** The Standard Ratings is calculated for Coil:Cooling:DX:SingleSpeed = COILCOOLING 21 but not at the AHRI test condition due to curve out of bound.
   **   ~~~   **  Review the Standard Ratings calculations in the Engineering Reference for this coil type. Also, use Output:Diagnostics, DisplayExtraWarnings for further guidance.
   ** Warning ** The Standard Ratings is calculated for Coil:Cooling:DX:SingleSpeed = COILCOOLING 22 but not at the AHRI test condition due to curve out of bound.
   **   ~~~   **  Review the Standard Ratings calculations in the Engineering Reference for this coil type. Also, use Output:Diagnostics, DisplayExtraWarnings for further guidance.
   ** Warning ** In zone THERMAL ZONE: F2-4 1-BED CORE EAST there is unbalanced air flow. Load due to induced outdoor air is neglected.
   **   ~~~   **  Environment=SACRAMENTO-EXECUTIVE-ARP SEP CLG 0.4% CONDNS DB=>MCWB, at Simulation time=09/21 24:00 - 24:15
   **   ~~~   **   Flows [kg/s]: Inlets: 0.477580  Unbalanced exhausts: 0.602321  Returns: 0.000000
   **   ~~~   **   Infiltration: 4.171147E-002  Ventilation: 0.000000  Mixing(incoming): 0.000000
   **   ~~~   **   Imbalance (excess outflow): 8.302870E-002  This error will only be reported once per zone.
   ** Warning ** In zone THERMAL ZONE: F2-4 1-BED CORE N there is unbalanced air flow. Load due to induced outdoor air is neglected.
   **   ~~~   **  Environment=SACRAMENTO-EXECUTIVE-ARP SEP CLG 0.4% CONDNS DB=>MCWB, at Simulation time=09/21 24:00 - 24:15
   **   ~~~   **   Flows [kg/s]: Inlets: 0.235095  Unbalanced exhausts: 0.297465  Returns: 0.000000
   **   ~~~   **   Infiltration: 2.074182E-002  Ventilation: 0.000000  Mixing(incoming): 0.000000
   **   ~~~   **   Imbalance (excess outflow): 4.162827E-002  This error will only be reported once per zone.
   ** Warning ** In zone THERMAL ZONE: F2-4 1-BED CORE WEST there is unbalanced air flow. Load due to induced outdoor air is neglected.
   **   ~~~   **  Environment=SACRAMENTO-EXECUTIVE-ARP SEP CLG 0.4% CONDNS DB=>MCWB, at Simulation time=09/21 24:00 - 24:15
   **   ~~~   **   Flows [kg/s]: Inlets: 0.462867  Unbalanced exhausts: 0.587607  Returns: 0.000000
   **   ~~~   **   Infiltration: 4.171147E-002  Ventilation: 0.000000  Mixing(incoming): 0.000000
   **   ~~~   **   Imbalance (excess outflow): 8.302870E-002  This error will only be reported once per zone.
   ** Warning ** In zone THERMAL ZONE: F2-4 1-BED NORTH there is unbalanced air flow. Load due to induced outdoor air is neglected.
   **   ~~~   **  Environment=SACRAMENTO-EXECUTIVE-ARP SEP CLG 0.4% CONDNS DB=>MCWB, at Simulation time=09/21 24:00 - 24:15
   **   ~~~   **   Flows [kg/s]: Inlets: 1.182933  Unbalanced exhausts: 1.500918  Returns: 0.000000
   **   ~~~   **   Infiltration: 0.105672  Ventilation: 0.000000  Mixing(incoming): 0.000000
   **   ~~~   **   Imbalance (excess outflow): 0.212313  This error will only be reported once per zone.
   ** Warning ** In zone THERMAL ZONE: F2-4 2-BED CORE NE-NW there is unbalanced air flow. Load due to induced outdoor air is neglected.
   **   ~~~   **  Environment=SACRAMENTO-EXECUTIVE-ARP SEP CLG 0.4% CONDNS DB=>MCWB, at Simulation time=09/21 24:00 - 24:15
   **   ~~~   **   Flows [kg/s]: Inlets: 0.685696  Unbalanced exhausts: 0.872806  Returns: 0.000000
   **   ~~~   **   Infiltration: 6.128708E-002  Ventilation: 0.000000  Mixing(incoming): 0.000000
   **   ~~~   **   Imbalance (excess outflow): 0.125823  This error will only be reported once per zone.
   ** Warning ** In zone THERMAL ZONE: F2-4 2-BED EAST there is unbalanced air flow. Load due to induced outdoor air is neglected.
   **   ~~~   **  Environment=SACRAMENTO-EXECUTIVE-ARP SEP CLG 0.4% CONDNS DB=>MCWB, at Simulation time=09/21 24:00 - 24:15
   **   ~~~   **   Flows [kg/s]: Inlets: 1.061193  Unbalanced exhausts: 1.341858  Returns: 0.000000
   **   ~~~   **   Infiltration: 9.389035E-002  Ventilation: 0.000000  Mixing(incoming): 0.000000
   **   ~~~   **   Imbalance (excess outflow): 0.186775  This error will only be reported once per zone.
   ** Warning ** In zone THERMAL ZONE: F2-4 2-BED WEST there is unbalanced air flow. Load due to induced outdoor air is neglected.
   **   ~~~   **  Environment=SACRAMENTO-EXECUTIVE-ARP SEP CLG 0.4% CONDNS DB=>MCWB, at Simulation time=09/21 24:00 - 24:15
   **   ~~~   **   Flows [kg/s]: Inlets: 1.106446  Unbalanced exhausts: 1.387111  Returns: 0.000000
   **   ~~~   **   Infiltration: 9.389035E-002  Ventilation: 0.000000  Mixing(incoming): 0.000000
   **   ~~~   **   Imbalance (excess outflow): 0.186775  This error will only be reported once per zone.
   ** Warning ** In zone THERMAL ZONE: F2-4 3-BED NE there is unbalanced air flow. Load due to induced outdoor air is neglected.
   **   ~~~   **  Environment=SACRAMENTO-EXECUTIVE-ARP SEP CLG 0.4% CONDNS DB=>MCWB, at Simulation time=09/21 24:00 - 24:15
   **   ~~~   **   Flows [kg/s]: Inlets: 0.458104  Unbalanced exhausts: 0.581310  Returns: 0.000000
   **   ~~~   **   Infiltration: 4.154064E-002  Ventilation: 0.000000  Mixing(incoming): 0.000000
   **   ~~~   **   Imbalance (excess outflow): 8.166584E-002  This error will only be reported once per zone.
   ** Warning ** In zone THERMAL ZONE: F2-4 3-BED NW there is unbalanced air flow. Load due to induced outdoor air is neglected.
   **   ~~~   **  Environment=SACRAMENTO-EXECUTIVE-ARP SEP CLG 0.4% CONDNS DB=>MCWB, at Simulation time=09/21 24:00 - 24:15
   **   ~~~   **   Flows [kg/s]: Inlets: 0.476005  Unbalanced exhausts: 0.599212  Returns: 0.000000
   **   ~~~   **   Infiltration: 4.154064E-002  Ventilation: 0.000000  Mixing(incoming): 0.000000
   **   ~~~   **   Imbalance (excess outflow): 8.166584E-002  This error will only be reported once per zone.
   ** Warning ** In zone THERMAL ZONE: F2-4 STUDIO SE there is unbalanced air flow. Load due to induced outdoor air is neglected.
   **   ~~~   **  Environment=SACRAMENTO-EXECUTIVE-ARP SEP CLG 0.4% CONDNS DB=>MCWB, at Simulation time=09/21 24:00 - 24:15
   **   ~~~   **   Flows [kg/s]: Inlets: 0.196046  Unbalanced exhausts: 0.249214  Returns: 0.000000
   **   ~~~   **   Infiltration: 1.822194E-002  Ventilation: 0.000000  Mixing(incoming): 0.000000
   **   ~~~   **   Imbalance (excess outflow): 3.494601E-002  This error will only be reported once per zone.
   ** Warning ** In zone THERMAL ZONE: F2-4 STUDIO SW there is unbalanced air flow. Load due to induced outdoor air is neglected.
   **   ~~~   **  Environment=SACRAMENTO-EXECUTIVE-ARP SEP CLG 0.4% CONDNS DB=>MCWB, at Simulation time=09/21 24:00 - 24:15
   **   ~~~   **   Flows [kg/s]: Inlets: 0.190832  Unbalanced exhausts: 0.244000  Returns: 0.000000
   **   ~~~   **   Infiltration: 1.822194E-002  Ventilation: 0.000000  Mixing(incoming): 0.000000
   **   ~~~   **   Imbalance (excess outflow): 3.494601E-002  This error will only be reported once per zone.
   ** Warning ** Controller:MechanicalVentilation="BASESYS5 OACTRL MECH VENT CONTROLLER", Zone OA/person rate
   **   ~~~   ** For Zone="THERMAL ZONE: F1 CORRIDOR".
   **   ~~~   ** Zone outside air per person rate not set in Design Specification Outdoor Air Object="THERMAL ZONE: F1 CORRIDOR DESIGN SPECIFICATION OUTDOOR AIR".
   ** Warning ** Controller:MechanicalVentilation="BASESYS5 OACTRL MECH VENT CONTROLLER", Zone OA/person rate
   **   ~~~   ** For Zone="THERMAL ZONE: F1 FITNESS CENTER".
   **   ~~~   ** Zone outside air per person rate not set in Design Specification Outdoor Air Object="THERMAL ZONE: F1 FITNESS CENTER DESIGN SPECIFICATION OUTDOOR AIR".
   ** Warning ** Controller:MechanicalVentilation="BASESYS5 OACTRL MECH VENT CONTROLLER", Zone OA/person rate
   **   ~~~   ** For Zone="THERMAL ZONE: F1 LEASING OFFICE".
   **   ~~~   ** Zone outside air per person rate not set in Design Specification Outdoor Air Object="THERMAL ZONE: F1 LEASING OFFICE DESIGN SPECIFICATION OUTDOOR AIR".
   ** Warning ** Controller:MechanicalVentilation="BASESYS5 OACTRL MECH VENT CONTROLLER", Zone OA/person rate
   **   ~~~   ** For Zone="THERMAL ZONE: F1 MECHANICAL ROOM".
   **   ~~~   ** Zone outside air per person rate not set in Design Specification Outdoor Air Object="THERMAL ZONE: F1 MECHANICAL ROOM DESIGN SPECIFICATION OUTDOOR AIR".
   ** Warning ** Controller:MechanicalVentilation="BASESYS5 OACTRL MECH VENT CONTROLLER", Zone OA/person rate
   **   ~~~   ** For Zone="THERMAL ZONE: F1 RETAIL N-NW".
   **   ~~~   ** Zone outside air per person rate not set in Design Specification Outdoor Air Object="THERMAL ZONE: F1 RETAIL N-NW DESIGN SPECIFICATION OUTDOOR AIR".
   ** Warning ** Controller:MechanicalVentilation="BASESYS5 OACTRL MECH VENT CONTROLLER", Zone OA/person rate
   **   ~~~   ** For Zone="THERMAL ZONE: F1 RETAIL NE".
   **   ~~~   ** Zone outside air per person rate not set in Design Specification Outdoor Air Object="THERMAL ZONE: F1 RETAIL NE DESIGN SPECIFICATION OUTDOOR AIR".
   ** Warning ** Controller:MechanicalVentilation="BASESYS5 OACTRL MECH VENT CONTROLLER", Zone OA/person rate
   **   ~~~   ** For Zone="THERMAL ZONE: F1 RETAIL SE".
   **   ~~~   ** Zone outside air per person rate not set in Design Specification Outdoor Air Object="THERMAL ZONE: F1 RETAIL SE DESIGN SPECIFICATION OUTDOOR AIR".
   ** Warning ** Controller:MechanicalVentilation="BASESYS5 OACTRL MECH VENT CONTROLLER", Zone OA/person rate
   **   ~~~   ** For Zone="THERMAL ZONE: F1 RETAIL SW".
   **   ~~~   ** Zone outside air per person rate not set in Design Specification Outdoor Air Object="THERMAL ZONE: F1 RETAIL SW DESIGN SPECIFICATION OUTDOOR AIR".
   ** Warning ** The Standard Ratings is calculated for Coil:Cooling:DX:SingleSpeed = DOAS1 COILCLG but not at the AHRI test condition due to curve out of bound.
   **   ~~~   **  Review the Standard Ratings calculations in the Engineering Reference for this coil type. Also, use Output:Diagnostics, DisplayExtraWarnings for further guidance.
   ** Warning ** The Standard Ratings is calculated for Coil:Heating:DX:SingleSpeed = DOAS1 COILHTG but not at the AHRI test condition due to curve out of bound.
   **   ~~~   **  Review the Standard Ratings calculations in the Engineering Reference for this coil type. Also, use Output:Diagnostics, DisplayExtraWarnings for further guidance.
   ** Warning ** Missing temperature setpoint for LeavingSetpointModulated mode Boiler named BASE BLR
   **   ~~~   **   A temperature setpoint is needed at the outlet node of a boiler in variable flow mode, use a SetpointManager
   **   ~~~   **   The overall loop setpoint will be assumed for Boiler. The simulation continues ... 
   ** Warning ** Check input. Pump nominal power or motor efficiency is set to 0, for pump={07F46BAF-D3DE-46E4-904C-1F936749E943}
   ** Warning ** Check input. Pump nominal power or motor efficiency is set to 0, for pump={6342A8FD-206D-406C-B656-F63AD8D40F48}
   ** Warning ** Output:Meter:MeterFileOnly: invalid Key Name="INTERIORLIGHTS:GAS" - not found.
   ** Warning ** Output:Meter:MeterFileOnly: invalid Key Name="HUMIDIFIER:DISTRICTHEATING" - not found.
   ** Warning ** Output:Meter:MeterFileOnly: invalid Key Name="COOLING:DISTRICTCOOLING" - not found.
   ** Warning ** Output:Meter:MeterFileOnly: invalid Key Name="PUMPS:GAS" - not found.
   ** Warning ** Output:Meter:MeterFileOnly: invalid Key Name="HEATRECOVERY:DISTRICTCOOLING" - not found.
   ** Warning ** Output:Meter:MeterFileOnly: invalid Key Name="DISTRICTHEATING:FACILITY" - not found.
   ** Warning ** Output:Meter:MeterFileOnly: invalid Key Name="RECEPTACLE:EXTERIOREQUIPMENT:ELECTRICITY" - not found.
   ** Warning ** Output:Meter:MeterFileOnly: invalid Key Name="WATERSYSTEMS:DISTRICTCOOLING" - not found.
   ** Warning ** Output:Meter:MeterFileOnly: invalid Key Name="FANS:GAS" - not found.
   ** Warning ** Output:Meter:MeterFileOnly: invalid Key Name="COGENERATION:DISTRICTHEATING" - not found.
   ** Warning ** Output:Meter:MeterFileOnly: invalid Key Name="PUMPS:DISTRICTCOOLING" - not found.
   ** Warning ** Output:Meter:MeterFileOnly: invalid Key Name="INTERIORLIGHTS:DISTRICTHEATING" - not found.
   ** Warning ** Output:Meter:MeterFileOnly: invalid Key Name="EXTERIORLIGHTS:ELECTRICITY" - not found.
   ** Warning ** Output:Meter:MeterFileOnly: invalid Key Name="REG LTG:EXTERIORLIGHTS:ELECTRICITY" - not found.
   ** Warning ** Output:Meter:MeterFileOnly: invalid Key Name="REFRIGERATION:DISTRICTCOOLING" - not found.
   ** Warning ** Output:Meter:MeterFileOnly: invalid Key Name="HEATREJECTION:DISTRICTCOOLING" - not found.
   ** Warning ** Output:Meter:MeterFileOnly: invalid Key Name="COGENERATION:ELECTRICITY" - not found.
   ** Warning ** Output:Meter:MeterFileOnly: invalid Key Name="HUMIDIFIER:ELECTRICITY" - not found.
   ** Warning ** Output:Meter:MeterFileOnly: invalid Key Name="EXTERIOREQUIPMENT:ELECTRICITY" - not found.
   ** Warning ** Output:Meter:MeterFileOnly: invalid Key Name="EXTERIOREQUIPMENT:GAS" - not found.
   ** Warning ** Output:Meter:MeterFileOnly: invalid Key Name="HEATREJECTION:ELECTRICITY" - not found.
   ** Warning ** Output:Meter:MeterFileOnly: invalid Key Name="HEATREJECTION:GAS" - not found.
   ** Warning ** Output:Meter:MeterFileOnly: invalid Key Name="HEATRECOVERY:ELECTRICITY" - not found.
   ** Warning ** Output:Meter:MeterFileOnly: invalid Key Name="REFRIGERATION:ELECTRICITY" - not found.
   ** Warning ** Output:Meter:MeterFileOnly: invalid Key Name="FANS:DISTRICTCOOLING" - not found.
   ** Warning ** Output:Meter:MeterFileOnly: invalid Key Name="INTERIORLIGHTS:DISTRICTCOOLING" - not found.
   ** Warning ** Output:Meter:MeterFileOnly: invalid Key Name="EXTERIORLIGHTS:GAS" - not found.
   ** Warning ** Output:Meter:MeterFileOnly: invalid Key Name="COOLING:GAS" - not found.
   ** Warning ** Output:Meter:MeterFileOnly: invalid Key Name="HUMIDIFIER:GAS" - not found.
   ** Warning ** Output:Meter:MeterFileOnly: invalid Key Name="HEATRECOVERY:GAS" - not found.
   ** Warning ** Output:Meter:MeterFileOnly: invalid Key Name="EXTERIORLIGHTS:DISTRICTHEATING" - not found.
   ** Warning ** Output:Meter:MeterFileOnly: invalid Key Name="COGENERATION:GAS" - not found.
   ** Warning ** Output:Meter:MeterFileOnly: invalid Key Name="REFRIGERATION:GAS" - not found.
   ** Warning ** Output:Meter:MeterFileOnly: invalid Key Name="DISTRICTCOOLING:FACILITY" - not found.
   ** Warning ** Output:Meter:MeterFileOnly: invalid Key Name="EXTERIORLIGHTS:DISTRICTCOOLING" - not found.
   ** Warning ** Output:Meter:MeterFileOnly: invalid Key Name="INTERIOREQUIPMENT:DISTRICTCOOLING" - not found.
   ** Warning ** Output:Meter:MeterFileOnly: invalid Key Name="EXTERIOREQUIPMENT:DISTRICTCOOLING" - not found.
   ** Warning ** Output:Meter:MeterFileOnly: invalid Key Name="REFRIGERATION:DISTRICTHEATING" - not found.
   ** Warning ** Output:Meter:MeterFileOnly: invalid Key Name="HEATING:DISTRICTCOOLING" - not found.
   ** Warning ** Output:Meter:MeterFileOnly: invalid Key Name="REFRIG:INTERIOREQUIPMENT:ELECTRICITY" - not found.
   ** Warning ** Output:Meter:MeterFileOnly: invalid Key Name="HUMIDIFIER:DISTRICTCOOLING" - not found.
   ** Warning ** Output:Meter:MeterFileOnly: invalid Key Name="COGENERATION:DISTRICTCOOLING" - not found.
   ** Warning ** Output:Meter:MeterFileOnly: invalid Key Name="INTERIOREQUIPMENT:DISTRICTHEATING" - not found.
   ** Warning ** Output:Meter:MeterFileOnly: invalid Key Name="EXTERIOREQUIPMENT:DISTRICTHEATING" - not found.
   ** Warning ** Output:Meter:MeterFileOnly: invalid Key Name="COOLING:DISTRICTHEATING" - not found.
   ** Warning ** Output:Meter:MeterFileOnly: invalid Key Name="FANS:DISTRICTHEATING" - not found.
   ** Warning ** Output:Meter:MeterFileOnly: invalid Key Name="PUMPS:DISTRICTHEATING" - not found.
   ** Warning ** Output:Meter:MeterFileOnly: invalid Key Name="HEATING:DISTRICTHEATING" - not found.
   ** Warning ** Output:Meter:MeterFileOnly: invalid Key Name="HEATREJECTION:DISTRICTHEATING" - not found.
   ** Warning ** Output:Meter:MeterFileOnly: invalid Key Name="HEATRECOVERY:DISTRICTHEATING" - not found.
   ** Warning ** Output:Meter:MeterFileOnly: invalid Key Name="WATERSYSTEMS:DISTRICTHEATING" - not found.
   ** Warning ** Output:Meter:MeterFileOnly: invalid Key Name="PROCESS:INTERIOREQUIPMENT:ELECTRICITY" - not found.
   ** Warning ** Output:Meter:MeterFileOnly: invalid Key Name="INTERNAL TRANSPORT:INTERIOREQUIPMENT:ELECTRICITY" - not found.
   ** Warning ** Output:Meter:MeterFileOnly: invalid Key Name="PROCESS:EXTERIOREQUIPMENT:ELECTRICITY" - not found.
   ** Warning ** Output:Meter:MeterFileOnly: invalid Key Name="REFRIG:EXTERIOREQUIPMENT:ELECTRICITY" - not found.
   ** Warning ** Output:Meter:MeterFileOnly: invalid Key Name="PROCESS:INTERIOREQUIPMENT:GAS" - not found.
   ** Warning ** Output:Meter:MeterFileOnly: invalid Key Name="RECEPTACLE:EXTERIOREQUIPMENT:GAS" - not found.
   ** Warning ** Output:Meter:MeterFileOnly: invalid Key Name="PROCESS:EXTERIOREQUIPMENT:GAS" - not found.
   ** Warning ** Output:Meter:MeterFileOnly: invalid Key Name="NONREG LTG:EXTERIORLIGHTS:ELECTRICITY" - not found.
   ************* Testing Individual Branch Integrity
   ************* All Branches passed integrity testing
   ************* Testing Individual Supply Air Path Integrity
   ************* All Supply Air Paths passed integrity testing
   ************* Testing Individual Return Air Path Integrity
   ************* All Return Air Paths passed integrity testing
   ************* No node connection errors were found.
   ************* Beginning Simulation
   ** Warning ** In zone THERMAL ZONE: F5 1-BED CORE EAST there is unbalanced exhaust air flow with no airloop serving the zone with outdoor air.
   **   ~~~   **  Environment=SACRAMENTO-EXECUTIVE_724830_CZ2010, at Simulation time=01/01 00:00 - 00:15
   **   ~~~   **   Unless there is balancing infiltration / ventilation air flow, this will result in
   **   ~~~   **   load due to induced outdoor air being neglected in the simulation.
   ** Warning ** In zone THERMAL ZONE: F5 1-BED CORE N there is unbalanced exhaust air flow with no airloop serving the zone with outdoor air.
   **   ~~~   **  Environment=SACRAMENTO-EXECUTIVE_724830_CZ2010, at Simulation time=01/01 00:00 - 00:15
   **   ~~~   **   Unless there is balancing infiltration / ventilation air flow, this will result in
   **   ~~~   **   load due to induced outdoor air being neglected in the simulation.
   ** Warning ** In zone THERMAL ZONE: F5 1-BED CORE WEST there is unbalanced exhaust air flow with no airloop serving the zone with outdoor air.
   **   ~~~   **  Environment=SACRAMENTO-EXECUTIVE_724830_CZ2010, at Simulation time=01/01 00:00 - 00:15
   **   ~~~   **   Unless there is balancing infiltration / ventilation air flow, this will result in
   **   ~~~   **   load due to induced outdoor air being neglected in the simulation.
   ** Warning ** In zone THERMAL ZONE: F5 1-BED NORTH there is unbalanced exhaust air flow with no airloop serving the zone with outdoor air.
   **   ~~~   **  Environment=SACRAMENTO-EXECUTIVE_724830_CZ2010, at Simulation time=01/01 00:00 - 00:15
   **   ~~~   **   Unless there is balancing infiltration / ventilation air flow, this will result in
   **   ~~~   **   load due to induced outdoor air being neglected in the simulation.
   ** Warning ** In zone THERMAL ZONE: F5 2-BED CORE NE-NW there is unbalanced exhaust air flow with no airloop serving the zone with outdoor air.
   **   ~~~   **  Environment=SACRAMENTO-EXECUTIVE_724830_CZ2010, at Simulation time=01/01 00:00 - 00:15
   **   ~~~   **   Unless there is balancing infiltration / ventilation air flow, this will result in
   **   ~~~   **   load due to induced outdoor air being neglected in the simulation.
   ** Warning ** In zone THERMAL ZONE: F5 2-BED EAST there is unbalanced exhaust air flow with no airloop serving the zone with outdoor air.
   **   ~~~   **  Environment=SACRAMENTO-EXECUTIVE_724830_CZ2010, at Simulation time=01/01 00:00 - 00:15
   **   ~~~   **   Unless there is balancing infiltration / ventilation air flow, this will result in
   **   ~~~   **   load due to induced outdoor air being neglected in the simulation.
   ** Warning ** In zone THERMAL ZONE: F5 2-BED WEST there is unbalanced exhaust air flow with no airloop serving the zone with outdoor air.
   **   ~~~   **  Environment=SACRAMENTO-EXECUTIVE_724830_CZ2010, at Simulation time=01/01 00:00 - 00:15
   **   ~~~   **   Unless there is balancing infiltration / ventilation air flow, this will result in
   **   ~~~   **   load due to induced outdoor air being neglected in the simulation.
   ** Warning ** In zone THERMAL ZONE: F5 3-BED NE there is unbalanced exhaust air flow with no airloop serving the zone with outdoor air.
   **   ~~~   **  Environment=SACRAMENTO-EXECUTIVE_724830_CZ2010, at Simulation time=01/01 00:00 - 00:15
   **   ~~~   **   Unless there is balancing infiltration / ventilation air flow, this will result in
   **   ~~~   **   load due to induced outdoor air being neglected in the simulation.
   ** Warning ** In zone THERMAL ZONE: F5 3-BED NW there is unbalanced exhaust air flow with no airloop serving the zone with outdoor air.
   **   ~~~   **  Environment=SACRAMENTO-EXECUTIVE_724830_CZ2010, at Simulation time=01/01 00:00 - 00:15
   **   ~~~   **   Unless there is balancing infiltration / ventilation air flow, this will result in
   **   ~~~   **   load due to induced outdoor air being neglected in the simulation.
   ** Warning ** In zone THERMAL ZONE: F5 STUDIO SE there is unbalanced exhaust air flow with no airloop serving the zone with outdoor air.
   **   ~~~   **  Environment=SACRAMENTO-EXECUTIVE_724830_CZ2010, at Simulation time=01/01 00:00 - 00:15
   **   ~~~   **   Unless there is balancing infiltration / ventilation air flow, this will result in
   **   ~~~   **   load due to induced outdoor air being neglected in the simulation.
   ** Warning ** In zone THERMAL ZONE: F5 STUDIO SW there is unbalanced exhaust air flow with no airloop serving the zone with outdoor air.
   **   ~~~   **  Environment=SACRAMENTO-EXECUTIVE_724830_CZ2010, at Simulation time=01/01 00:00 - 00:15
   **   ~~~   **   Unless there is balancing infiltration / ventilation air flow, this will result in
   **   ~~~   **   load due to induced outdoor air being neglected in the simulation.
   ** Warning ** SimHVAC: Maximum iterations (20) exceeded for all HVAC loops, at SACRAMENTO-EXECUTIVE_724830_CZ2010, 01/03 16:15 - 16:30
   **   ~~~   ** The solution for one or more of the Air Loop HVAC systems did not appear to converge
   **   ~~~   ** ...use Output:Diagnostics,DisplayExtraWarnings; to show more details on each max iteration exceeded.
   ** Warning ** SimHVAC: Maximum iterations (20) exceeded for all HVAC loops, at SACRAMENTO-EXECUTIVE_724830_CZ2010, 01/03 16:30 - 16:38
   **   ~~~   ** The solution for one or more of the Air Loop HVAC systems did not appear to converge
   ** Warning ** SimHVAC: Maximum iterations (20) exceeded for all HVAC loops, at SACRAMENTO-EXECUTIVE_724830_CZ2010, 01/03 16:45 - 16:53
   **   ~~~   ** The solution for one or more of the Air Loop HVAC systems did not appear to converge
   ** Warning ** SimHVAC: Maximum iterations (20) exceeded for all HVAC loops, at SACRAMENTO-EXECUTIVE_724830_CZ2010, 01/12 15:15 - 15:30
   **   ~~~   ** The solution for one or more of the Air Loop HVAC systems did not appear to converge
   ** Warning ** SimHVAC: Maximum iterations (20) exceeded for all HVAC loops, at SACRAMENTO-EXECUTIVE_724830_CZ2010, 01/12 15:30 - 15:45
   **   ~~~   ** The solution for one or more of the Air Loop HVAC systems did not appear to converge
   ** Warning ** SimHVAC: Maximum iterations (20) exceeded for all HVAC loops, at SACRAMENTO-EXECUTIVE_724830_CZ2010, 01/12 15:45 - 16:00
   **   ~~~   ** The solution for one or more of the Air Loop HVAC systems did not appear to converge
   ** Warning ** SimHVAC: Maximum iterations (20) exceeded for all HVAC loops, at SACRAMENTO-EXECUTIVE_724830_CZ2010, 01/12 16:00 - 16:15
   **   ~~~   ** The solution for one or more of the Air Loop HVAC systems did not appear to converge
   ** Warning ** SimHVAC: Maximum iterations (20) exceeded for all HVAC loops, at SACRAMENTO-EXECUTIVE_724830_CZ2010, 01/12 16:15 - 16:30
   **   ~~~   ** The solution for one or more of the Air Loop HVAC systems did not appear to converge
   ** Warning ** SimHVAC: Maximum iterations (20) exceeded for all HVAC loops, at SACRAMENTO-EXECUTIVE_724830_CZ2010, 01/12 16:30 - 16:45
   **   ~~~   ** The solution for one or more of the Air Loop HVAC systems did not appear to converge
   ** Warning ** SimHVAC: Maximum iterations (20) exceeded for all HVAC loops, at SACRAMENTO-EXECUTIVE_724830_CZ2010, 01/12 16:45 - 17:00
   **   ~~~   ** The solution for one or more of the Air Loop HVAC systems did not appear to converge
   ** Warning ** SimHVAC: Maximum iterations (20) exceeded for all HVAC loops, at SACRAMENTO-EXECUTIVE_724830_CZ2010, 01/13 16:45 - 17:00
   **   ~~~   ** The solution for one or more of the Air Loop HVAC systems did not appear to converge
   ** Warning ** SimHVAC: Maximum iterations (20) exceeded for all HVAC loops, at SACRAMENTO-EXECUTIVE_724830_CZ2010, 01/17 16:30 - 16:45
   **   ~~~   ** The solution for one or more of the Air Loop HVAC systems did not appear to converge
   ** Warning ** SimHVAC: Maximum iterations (20) exceeded for all HVAC loops, at SACRAMENTO-EXECUTIVE_724830_CZ2010, 01/17 16:45 - 17:00
   **   ~~~   ** The solution for one or more of the Air Loop HVAC systems did not appear to converge
   ** Warning ** SimHVAC: Maximum iterations (20) exceeded for all HVAC loops, at SACRAMENTO-EXECUTIVE_724830_CZ2010, 01/20 16:53 - 17:00
   **   ~~~   ** The solution for one or more of the Air Loop HVAC systems did not appear to converge
   ** Warning ** CalcDoe2DXCoil: Coil:Cooling:DX:SingleSpeed "DOAS1 COILCLG" - Full load outlet air dry-bulb temperature < 2C. This indicates the possibility of coil frost/freeze. Outlet temperature = 1.48 C.
   **   ~~~   **  ...Occurrence info = SACRAMENTO-EXECUTIVE_724830_CZ2010, 01/21 15:00 - 15:08
   **   ~~~   ** ... Possible reasons for low outlet air dry-bulb temperatures are: This DX coil
   **   ~~~   **    1) may have a low inlet air dry-bulb temperature. Inlet air temperature = 14.475 C.
   **   ~~~   **    2) may have a low air flow rate per watt of cooling capacity. Check inputs.
   **   ~~~   **    3) is used as part of a HX assisted cooling coil which uses a high sensible effectiveness. Check inputs.
   ************* Simulation Error Summary *************
   ************* There are 1 unused objects in input.
   ************* Use Output:Diagnostics,DisplayUnusedObjects; to see them.
   ************* There are 11 unused schedules in input.
   ************* There are 11 unused week schedules in input.
   ************* There are 21 unused day schedules in input.
   ************* Use Output:Diagnostics,DisplayUnusedSchedules; to see them.
   *************
   ************* ===== Recurring Error Summary =====
   ************* The following recurring error messages occurred.
   *************
   *************  ** Warning ** CalcDoe2DXCoil: Coil:Cooling:DX:SingleSpeed="DOAS1 COILCLG" - Full load outlet temperature indicates a possibility of frost/freeze error continues. Outlet air temperature statistics follow:
   *************  **   ~~~   **   This error occurred 472 total times;
   *************  **   ~~~   **   during Warmup 0 times;
   *************  **   ~~~   **   during Sizing 0 times.
   *************  **   ~~~   **   Max=1.993213  Min=-2.172205
   *************
   *************  ** Warning ** SimHVAC: Exceeding Maximum iterations for all HVAC loops, during SACRAMENTO-EXECUTIVE_724830_CZ2010 continues
   *************  **   ~~~   **   This error occurred 558 total times;
   *************  **   ~~~   **   during Warmup 0 times;
   *************  **   ~~~   **   during Sizing 0 times.
   *************
   ************* EnergyPlus Warmup Error Summary. During Warmup: 0 Warning; 0 Severe Errors.
   ************* EnergyPlus Sizing Error Summary. During Sizing: 91 Warning; 0 Severe Errors.
   ************* EnergyPlus Completed Successfully-- 1251 Warning; 0 Severe Errors; Elapsed Time=00hr 03min  6.88sec
