Program Version,EnergyPlus, Version 9.0.1-bb7ca4f0da, YMD=2019.12.18 16:34,
   ************* Beginning Zone Sizing Calculations
   ** Warning ** ProcessScheduleInput: Schedule:Day:Interval="{178F131C-24DA-4879-B9BD-204956C9442D}", Blank Schedule Type Limits Name input -- will not be validated.
   ** Warning ** ProcessScheduleInput: Schedule:Day:Interval="{22715CED-7FB9-45A9-A42F-1FDDFE90DA15}", Blank Schedule Type Limits Name input -- will not be validated.
   ** Warning ** ProcessScheduleInput: Schedule:Day:Interval="{2DCCAFEE-569F-4F30-B1CA-6990C0B26B23}", Blank Schedule Type Limits Name input -- will not be validated.
   ** Warning ** ProcessScheduleInput: Schedule:Day:Interval="{3F9329CF-F91D-4A3A-92F5-81BE75770349}", Blank Schedule Type Limits Name input -- will not be validated.
   ** Warning ** ProcessScheduleInput: Schedule:Day:Interval="{40170687-46AD-45ED-9829-41B319F5B5A3}", Blank Schedule Type Limits Name input -- will not be validated.
   ** Warning ** ProcessScheduleInput: Schedule:Day:Interval="{40526ABB-7251-444B-A936-5F7D64F981A4}", Blank Schedule Type Limits Name input -- will not be validated.
   ** Warning ** ProcessScheduleInput: Schedule:Day:Interval="{430EBC7B-1865-4486-9211-F283761C19E2}", Blank Schedule Type Limits Name input -- will not be validated.
   ** Warning ** ProcessScheduleInput: Schedule:Day:Interval="{472F902B-9D9A-48E1-85AB-DABDC6517519}", Blank Schedule Type Limits Name input -- will not be validated.
   ** Warning ** ProcessScheduleInput: Schedule:Day:Interval="{53F5F3A1-CDE7-467D-BDDE-63100989298B}", Blank Schedule Type Limits Name input -- will not be validated.
   ** Warning ** ProcessScheduleInput: Schedule:Day:Interval="{55266F2B-3C5D-4344-86AB-23FB37065DED}", Blank Schedule Type Limits Name input -- will not be validated.
   ** Warning ** ProcessScheduleInput: Schedule:Day:Interval="{603E7C45-6D14-47D4-9293-0608EFE6457D}", Blank Schedule Type Limits Name input -- will not be validated.
   ** Warning ** ProcessScheduleInput: Schedule:Day:Interval="{658F3D27-F5AA-4E1F-91BB-1A6DB127FDBC}", Blank Schedule Type Limits Name input -- will not be validated.
   ** Warning ** ProcessScheduleInput: Schedule:Day:Interval="{660AA7B5-AF0E-473F-A458-BB17B6976A3E}", Blank Schedule Type Limits Name input -- will not be validated.
   ** Warning ** ProcessScheduleInput: Schedule:Day:Interval="{7B315710-72F0-40CE-AE37-5A1B582516E5}", Blank Schedule Type Limits Name input -- will not be validated.
   ** Warning ** ProcessScheduleInput: Schedule:Day:Interval="{82057BEC-36A4-4E00-B37B-FA6DEFFA4E14}", Blank Schedule Type Limits Name input -- will not be validated.
   ** Warning ** ProcessScheduleInput: Schedule:Day:Interval="{93C97AF1-5269-4D34-97F2-39DD2F320E24}", Blank Schedule Type Limits Name input -- will not be validated.
   ** Warning ** ProcessScheduleInput: Schedule:Day:Interval="{971EC047-BF60-4442-8458-89B1BE5A610B}", Blank Schedule Type Limits Name input -- will not be validated.
   ** Warning ** ProcessScheduleInput: Schedule:Day:Interval="{A658D06C-65A3-46D7-AFCA-4F9D399DB8AD}", Blank Schedule Type Limits Name input -- will not be validated.
   ** Warning ** ProcessScheduleInput: Schedule:Day:Interval="{A79DDD14-3C80-4598-A344-50CBBBC9405B}", Blank Schedule Type Limits Name input -- will not be validated.
   ** Warning ** ProcessScheduleInput: Schedule:Day:Interval="{BD1417F0-0B19-4F33-9436-78F8798F670F}", Blank Schedule Type Limits Name input -- will not be validated.
   ** Warning ** ProcessScheduleInput: Schedule:Day:Interval="{BDD01997-5FF7-4469-A1E8-D499F49C6311}", Blank Schedule Type Limits Name input -- will not be validated.
   ** Warning ** ProcessScheduleInput: Schedule:Day:Interval="{C2D6EA23-B6DB-4246-83BB-7C5CE222FA6A}", Blank Schedule Type Limits Name input -- will not be validated.
   ** Warning ** ProcessScheduleInput: Schedule:Day:Interval="{C84DB9F2-B2A0-41F5-8A01-177DCD9217DE}", Blank Schedule Type Limits Name input -- will not be validated.
   ** Warning ** ProcessScheduleInput: Schedule:Day:Interval="{D9A5B5AD-421A-4552-9F8A-4532403B1E87}", Blank Schedule Type Limits Name input -- will not be validated.
   ** Warning ** ProcessScheduleInput: Schedule:Day:Interval="{DC6DE433-94B6-4733-90B6-0A51B3D8C3A3}", Blank Schedule Type Limits Name input -- will not be validated.
   ** Warning ** ProcessScheduleInput: Schedule:Day:Interval="{E8932A0E-07F6-44C3-8A96-01B28F13416D}", Blank Schedule Type Limits Name input -- will not be validated.
   ** Warning ** ProcessScheduleInput: Schedule:Day:Interval="{F5C17012-1CE8-4008-8532-3803DC4A9D59}", Blank Schedule Type Limits Name input -- will not be validated.
   ** Warning ** ProcessScheduleInput: Schedule:Day:Interval="{FEDE5229-EA3B-47D6-AEC8-67009462F7F8}", Blank Schedule Type Limits Name input -- will not be validated.
   ** Warning ** ProcessScheduleInput: Schedule:Year="F1 BUSINESS CENTER TARGET SHW TEMP", Blank Schedule Type Limits Name input -- will not be validated.
   ** Warning ** ProcessScheduleInput: Schedule:Year="F1 ELEVATOR CORE TARGET SHW TEMP", Blank Schedule Type Limits Name input -- will not be validated.
   ** Warning ** ProcessScheduleInput: Schedule:Year="F1 ELEVATOR N TARGET SHW TEMP", Blank Schedule Type Limits Name input -- will not be validated.
   ** Warning ** ProcessScheduleInput: Schedule:Year="F1 ELEVATOR S TARGET SHW TEMP", Blank Schedule Type Limits Name input -- will not be validated.
   ** Warning ** ProcessScheduleInput: Schedule:Year="F1 FITNESS CENTER TARGET SHW TEMP", Blank Schedule Type Limits Name input -- will not be validated.
   ** Warning ** ProcessScheduleInput: Schedule:Year="F1 LEASING OFFICE TARGET SHW TEMP", Blank Schedule Type Limits Name input -- will not be validated.
   ** Warning ** ProcessScheduleInput: Schedule:Year="F1 LOUNGE TARGET SHW TEMP", Blank Schedule Type Limits Name input -- will not be validated.
   ** Warning ** ProcessScheduleInput: Schedule:Year="F1 MECHANICAL ROOM TARGET SHW TEMP", Blank Schedule Type Limits Name input -- will not be validated.
   ** Warning ** ProcessScheduleInput: Schedule:Year="F1 RETAIL N CORE TARGET SHW TEMP", Blank Schedule Type Limits Name input -- will not be validated.
   ** Warning ** ProcessScheduleInput: Schedule:Year="F1 RETAIL NE CORE TARGET SHW TEMP", Blank Schedule Type Limits Name input -- will not be validated.
   ** Warning ** ProcessScheduleInput: Schedule:Year="F1 RETAIL NE INNER TARGET SHW TEMP", Blank Schedule Type Limits Name input -- will not be validated.
   ** Warning ** ProcessScheduleInput: Schedule:Year="F1 RETAIL NE OUTER TARGET SHW TEMP", Blank Schedule Type Limits Name input -- will not be validated.
   ** Warning ** ProcessScheduleInput: Schedule:Year="F1 RETAIL NW INNER CORE TARGET SHW TEMP", Blank Schedule Type Limits Name input -- will not be validated.
   ** Warning ** ProcessScheduleInput: Schedule:Year="F1 RETAIL NW OUTER CORE TARGET SHW TEMP", Blank Schedule Type Limits Name input -- will not be validated.
   ** Warning ** ProcessScheduleInput: Schedule:Year="F1 RETAIL NW OUTER TARGET SHW TEMP", Blank Schedule Type Limits Name input -- will not be validated.
   ** Warning ** ProcessScheduleInput: Schedule:Year="F1 RETAIL SE BOTTOM TARGET SHW TEMP", Blank Schedule Type Limits Name input -- will not be validated.
   ** Warning ** ProcessScheduleInput: Schedule:Year="F1 RETAIL SE TOP TARGET SHW TEMP", Blank Schedule Type Limits Name input -- will not be validated.
   ** Warning ** ProcessScheduleInput: Schedule:Year="F1 RETAIL SW BOTTOM TARGET SHW TEMP", Blank Schedule Type Limits Name input -- will not be validated.
   ** Warning ** ProcessScheduleInput: Schedule:Year="F1 RETAIL SW CORE TARGET SHW TEMP", Blank Schedule Type Limits Name input -- will not be validated.
   ** Warning ** ProcessScheduleInput: Schedule:Year="F1 RETAIL SW TOP TARGET SHW TEMP", Blank Schedule Type Limits Name input -- will not be validated.
   ** Warning ** ProcessScheduleInput: Schedule:Year="F2-4 ELEVATOR CORE TARGET SHW TEMP", Blank Schedule Type Limits Name input -- will not be validated.
   ** Warning ** ProcessScheduleInput: Schedule:Year="F2-4 ELEVATOR N TARGET SHW TEMP", Blank Schedule Type Limits Name input -- will not be validated.
   ** Warning ** ProcessScheduleInput: Schedule:Year="F2-4 ELEVATOR S TARGET SHW TEMP", Blank Schedule Type Limits Name input -- will not be validated.
   ** Warning ** ProcessScheduleInput: Schedule:Year="F2-4 LAUNDRY TARGET SHW TEMP", Blank Schedule Type Limits Name input -- will not be validated.
   ** Warning ** ProcessScheduleInput: Schedule:Year="F5 ELEVATOR CORE TARGET SHW TEMP", Blank Schedule Type Limits Name input -- will not be validated.
   ** Warning ** ProcessScheduleInput: Schedule:Year="F5 ELEVATOR N TARGET SHW TEMP", Blank Schedule Type Limits Name input -- will not be validated.
   ** Warning ** ProcessScheduleInput: Schedule:Year="F5 ELEVATOR S TARGET SHW TEMP", Blank Schedule Type Limits Name input -- will not be validated.
   ** Warning ** ProcessScheduleInput: Schedule:Year="F5 LAUNDRY TARGET SHW TEMP", Blank Schedule Type Limits Name input -- will not be validated.
   ** Warning ** ProcessScheduleInput: Schedule:Constant="ALWAYS OFF DISCRETE", Blank Schedule Type Limits Name input -- will not be validated.
   ** Warning ** ProcessScheduleInput: Schedule:Constant="ALWAYS ON CONTINUOUS", Blank Schedule Type Limits Name input -- will not be validated.
   ** Warning ** CalculateZoneVolume: 22 zones are not fully enclosed. For more details use:  Output:Diagnostics,DisplayExtrawarnings; 
   ** Warning ** GetDaylightingControls: Fraction of Zone controlled by the Daylighting reference points is < 1.0.
   **   ~~~   ** ..discovered in "Daylighting:Controls" for Zone="THERMAL ZONE: F1 CORRIDOR", only 0.28 of the zone is controlled.
   ** Warning ** GetDaylightingControls: Fraction of Zone controlled by the Daylighting reference points is < 1.0.
   **   ~~~   ** ..discovered in "Daylighting:Controls" for Zone="THERMAL ZONE: F1 RETAIL N-NW", only 0.10 of the zone is controlled.
   ** Warning ** GetDaylightingControls: Fraction of Zone controlled by the Daylighting reference points is < 1.0.
   **   ~~~   ** ..discovered in "Daylighting:Controls" for Zone="THERMAL ZONE: F1 RETAIL NE", only 0.14 of the zone is controlled.
   ** Warning ** GetDaylightingControls: Fraction of Zone controlled by the Daylighting reference points is < 1.0.
   **   ~~~   ** ..discovered in "Daylighting:Controls" for Zone="THERMAL ZONE: F1 RETAIL SE", only 0.40 of the zone is controlled.
   ** Warning ** GetDaylightingControls: Fraction of Zone controlled by the Daylighting reference points is < 1.0.
   **   ~~~   ** ..discovered in "Daylighting:Controls" for Zone="THERMAL ZONE: F1 RETAIL SW", only 0.36 of the zone is controlled.
   ** Warning ** GetSimpleAirModelInputs: ZoneInfiltration:DesignFlowRate="F1 MECHANICAL ROOM SPACE INFILTRATION DESIGN FLOW RATE 1", Design Flow Rate Calculation Method specifies Flow per Exterior Surface Area, but Exterior Wall Area = 0.  0 Infiltration will result.
   ** Warning ** GetSimpleAirModelInputs: ZoneInfiltration:DesignFlowRate="PARKING GARAGE SPACE INFILTRATION DESIGN FLOW RATE 1", Design Flow Rate Calculation Method specifies Flow per Exterior Surface Area, but Exterior Wall Area = 0.  0 Infiltration will result.
   ** Warning ** SetUpZoneSizingArrays: Requested Sizing for Zone="THERMAL ZONE: PARKING GARAGE", Zone has no thermostat (ref: ZoneControl:Thermostat, et al)
   ** Warning ** Calculated design cooling load for zone=THERMAL ZONE: PARKING GARAGE is zero.
   **   ~~~   ** Check Sizing:Zone and ZoneControl:Thermostat inputs.
   ** Warning ** Calculated design heating load for zone=THERMAL ZONE: PARKING GARAGE is zero.
   **   ~~~   ** Check Sizing:Zone and ZoneControl:Thermostat inputs.
   ************* Beginning System Sizing Calculations
   ** Warning ** Since Zone Minimum Air Flow Input Method = FIXEDFLOWRATE, input for Constant Minimum Air Flow Fraction will be ignored.
   **   ~~~   ** Occurs in AirTerminal:SingleDuct:VAV:Reheat = BASEVAV TRMLUNIT
   ** Warning ** Since Damper Heating Action = REVERSE, input for Maximum Flow Fraction During Reheat will be ignored.
   **   ~~~   ** Occurs in AirTerminal:SingleDuct:VAV:Reheat = BASEVAV TRMLUNIT
   ** Warning ** Since Zone Minimum Air Flow Input Method = FIXEDFLOWRATE, input for Constant Minimum Air Flow Fraction will be ignored.
   **   ~~~   ** Occurs in AirTerminal:SingleDuct:VAV:Reheat = BASEVAV TRMLUNIT-2
   ** Warning ** Since Damper Heating Action = REVERSE, input for Maximum Flow Fraction During Reheat will be ignored.
   **   ~~~   ** Occurs in AirTerminal:SingleDuct:VAV:Reheat = BASEVAV TRMLUNIT-2
   ** Warning ** Since Zone Minimum Air Flow Input Method = FIXEDFLOWRATE, input for Constant Minimum Air Flow Fraction will be ignored.
   **   ~~~   ** Occurs in AirTerminal:SingleDuct:VAV:Reheat = BASEVAV TRMLUNIT-4
   ** Warning ** Since Damper Heating Action = REVERSE, input for Maximum Flow Fraction During Reheat will be ignored.
   **   ~~~   ** Occurs in AirTerminal:SingleDuct:VAV:Reheat = BASEVAV TRMLUNIT-4
   ** Warning ** Since Zone Minimum Air Flow Input Method = FIXEDFLOWRATE, input for Constant Minimum Air Flow Fraction will be ignored.
   **   ~~~   ** Occurs in AirTerminal:SingleDuct:VAV:Reheat = BASEVAV TRMLUNIT-5
   ** Warning ** Since Damper Heating Action = REVERSE, input for Maximum Flow Fraction During Reheat will be ignored.
   **   ~~~   ** Occurs in AirTerminal:SingleDuct:VAV:Reheat = BASEVAV TRMLUNIT-5
   ** Warning ** Since Zone Minimum Air Flow Input Method = FIXEDFLOWRATE, input for Constant Minimum Air Flow Fraction will be ignored.
   **   ~~~   ** Occurs in AirTerminal:SingleDuct:VAV:Reheat = BASEVAV TRMLUNIT-3
   ** Warning ** Since Damper Heating Action = REVERSE, input for Maximum Flow Fraction During Reheat will be ignored.
   **   ~~~   ** Occurs in AirTerminal:SingleDuct:VAV:Reheat = BASEVAV TRMLUNIT-3
   ** Warning ** Since Zone Minimum Air Flow Input Method = FIXEDFLOWRATE, input for Constant Minimum Air Flow Fraction will be ignored.
   **   ~~~   ** Occurs in AirTerminal:SingleDuct:VAV:Reheat = BASEVAV TRMLUNIT-6
   ** Warning ** Since Damper Heating Action = REVERSE, input for Maximum Flow Fraction During Reheat will be ignored.
   **   ~~~   ** Occurs in AirTerminal:SingleDuct:VAV:Reheat = BASEVAV TRMLUNIT-6
   ** Warning ** Since Zone Minimum Air Flow Input Method = FIXEDFLOWRATE, input for Constant Minimum Air Flow Fraction will be ignored.
   **   ~~~   ** Occurs in AirTerminal:SingleDuct:VAV:Reheat = BASEVAV TRMLUNIT-7
   ** Warning ** Since Damper Heating Action = REVERSE, input for Maximum Flow Fraction During Reheat will be ignored.
   **   ~~~   ** Occurs in AirTerminal:SingleDuct:VAV:Reheat = BASEVAV TRMLUNIT-7
   ** Warning ** Since Zone Minimum Air Flow Input Method = FIXEDFLOWRATE, input for Constant Minimum Air Flow Fraction will be ignored.
   **   ~~~   ** Occurs in AirTerminal:SingleDuct:VAV:Reheat = BASEVAV TRMLUNIT-8
   ** Warning ** Since Damper Heating Action = REVERSE, input for Maximum Flow Fraction During Reheat will be ignored.
   **   ~~~   ** Occurs in AirTerminal:SingleDuct:VAV:Reheat = BASEVAV TRMLUNIT-8
   ** Warning ** Since Zone Minimum Air Flow Input Method = FIXEDFLOWRATE, input for Constant Minimum Air Flow Fraction will be ignored.
   **   ~~~   ** Occurs in AirTerminal:SingleDuct:VAV:Reheat = BASEVAV TRMLUNIT-9
   ** Warning ** Since Damper Heating Action = REVERSE, input for Maximum Flow Fraction During Reheat will be ignored.
   **   ~~~   ** Occurs in AirTerminal:SingleDuct:VAV:Reheat = BASEVAV TRMLUNIT-9
   ** Warning ** Since Zone Minimum Air Flow Input Method = FIXEDFLOWRATE, input for Constant Minimum Air Flow Fraction will be ignored.
   **   ~~~   ** Occurs in AirTerminal:SingleDuct:VAV:Reheat = BASEVAV TRMLUNIT-10
   ** Warning ** Since Damper Heating Action = REVERSE, input for Maximum Flow Fraction During Reheat will be ignored.
   **   ~~~   ** Occurs in AirTerminal:SingleDuct:VAV:Reheat = BASEVAV TRMLUNIT-10
   ************* Beginning Plant Sizing Calculations
   ** Warning ** The Standard Ratings is calculated for Coil:Cooling:DX:SingleSpeed = COILCOOLING 3 but not at the AHRI test condition due to curve out of bound.
   **   ~~~   **  Review the Standard Ratings calculations in the Engineering Reference for this coil type. Also, use Output:Diagnostics, DisplayExtraWarnings for further guidance.
   ** Warning ** The Standard Ratings is calculated for Coil:Cooling:DX:SingleSpeed = COILCOOLING 1 but not at the AHRI test condition due to curve out of bound.
   **   ~~~   **  Review the Standard Ratings calculations in the Engineering Reference for this coil type. Also, use Output:Diagnostics, DisplayExtraWarnings for further guidance.
   ** Warning ** The Standard Ratings is calculated for Coil:Cooling:DX:SingleSpeed = COILCOOLING 2 but not at the AHRI test condition due to curve out of bound.
   **   ~~~   **  Review the Standard Ratings calculations in the Engineering Reference for this coil type. Also, use Output:Diagnostics, DisplayExtraWarnings for further guidance.
   ** Warning ** The Standard Ratings is calculated for Coil:Cooling:DX:SingleSpeed = COILCOOLING 4 but not at the AHRI test condition due to curve out of bound.
   **   ~~~   **  Review the Standard Ratings calculations in the Engineering Reference for this coil type. Also, use Output:Diagnostics, DisplayExtraWarnings for further guidance.
   ** Warning ** The Standard Ratings is calculated for Coil:Cooling:DX:SingleSpeed = COILCOOLING 5 but not at the AHRI test condition due to curve out of bound.
   **   ~~~   **  Review the Standard Ratings calculations in the Engineering Reference for this coil type. Also, use Output:Diagnostics, DisplayExtraWarnings for further guidance.
   ** Warning ** The Standard Ratings is calculated for Coil:Cooling:DX:SingleSpeed = COILCOOLING 6 but not at the AHRI test condition due to curve out of bound.
   **   ~~~   **  Review the Standard Ratings calculations in the Engineering Reference for this coil type. Also, use Output:Diagnostics, DisplayExtraWarnings for further guidance.
   ** Warning ** The Standard Ratings is calculated for Coil:Cooling:DX:SingleSpeed = COILCOOLING 7 but not at the AHRI test condition due to curve out of bound.
   **   ~~~   **  Review the Standard Ratings calculations in the Engineering Reference for this coil type. Also, use Output:Diagnostics, DisplayExtraWarnings for further guidance.
   ** Warning ** The Standard Ratings is calculated for Coil:Cooling:DX:SingleSpeed = COILCOOLING 8 but not at the AHRI test condition due to curve out of bound.
   **   ~~~   **  Review the Standard Ratings calculations in the Engineering Reference for this coil type. Also, use Output:Diagnostics, DisplayExtraWarnings for further guidance.
   ** Warning ** The Standard Ratings is calculated for Coil:Cooling:DX:SingleSpeed = COILCOOLING 9 but not at the AHRI test condition due to curve out of bound.
   **   ~~~   **  Review the Standard Ratings calculations in the Engineering Reference for this coil type. Also, use Output:Diagnostics, DisplayExtraWarnings for further guidance.
   ** Warning ** The Standard Ratings is calculated for Coil:Cooling:DX:SingleSpeed = COILCOOLING 10 but not at the AHRI test condition due to curve out of bound.
   **   ~~~   **  Review the Standard Ratings calculations in the Engineering Reference for this coil type. Also, use Output:Diagnostics, DisplayExtraWarnings for further guidance.
   ** Warning ** The Standard Ratings is calculated for Coil:Cooling:DX:SingleSpeed = COILCOOLING 11 but not at the AHRI test condition due to curve out of bound.
   **   ~~~   **  Review the Standard Ratings calculations in the Engineering Reference for this coil type. Also, use Output:Diagnostics, DisplayExtraWarnings for further guidance.
   ** Warning ** The Standard Ratings is calculated for Coil:Cooling:DX:SingleSpeed = COILCOOLING 14 but not at the AHRI test condition due to curve out of bound.
   **   ~~~   **  Review the Standard Ratings calculations in the Engineering Reference for this coil type. Also, use Output:Diagnostics, DisplayExtraWarnings for further guidance.
   ** Warning ** The Standard Ratings is calculated for Coil:Cooling:DX:SingleSpeed = COILCOOLING 12 but not at the AHRI test condition due to curve out of bound.
   **   ~~~   **  Review the Standard Ratings calculations in the Engineering Reference for this coil type. Also, use Output:Diagnostics, DisplayExtraWarnings for further guidance.
   ** Warning ** The Standard Ratings is calculated for Coil:Cooling:DX:SingleSpeed = COILCOOLING 13 but not at the AHRI test condition due to curve out of bound.
   **   ~~~   **  Review the Standard Ratings calculations in the Engineering Reference for this coil type. Also, use Output:Diagnostics, DisplayExtraWarnings for further guidance.
   ** Warning ** The Standard Ratings is calculated for Coil:Cooling:DX:SingleSpeed = COILCOOLING 15 but not at the AHRI test condition due to curve out of bound.
   **   ~~~   **  Review the Standard Ratings calculations in the Engineering Reference for this coil type. Also, use Output:Diagnostics, DisplayExtraWarnings for further guidance.
   ** Warning ** The Standard Ratings is calculated for Coil:Cooling:DX:SingleSpeed = COILCOOLING 16 but not at the AHRI test condition due to curve out of bound.
   **   ~~~   **  Review the Standard Ratings calculations in the Engineering Reference for this coil type. Also, use Output:Diagnostics, DisplayExtraWarnings for further guidance.
   ** Warning ** The Standard Ratings is calculated for Coil:Cooling:DX:SingleSpeed = COILCOOLING 17 but not at the AHRI test condition due to curve out of bound.
   **   ~~~   **  Review the Standard Ratings calculations in the Engineering Reference for this coil type. Also, use Output:Diagnostics, DisplayExtraWarnings for further guidance.
   ** Warning ** The Standard Ratings is calculated for Coil:Cooling:DX:SingleSpeed = COILCOOLING 18 but not at the AHRI test condition due to curve out of bound.
   **   ~~~   **  Review the Standard Ratings calculations in the Engineering Reference for this coil type. Also, use Output:Diagnostics, DisplayExtraWarnings for further guidance.
   ** Warning ** The Standard Ratings is calculated for Coil:Cooling:DX:SingleSpeed = COILCOOLING 19 but not at the AHRI test condition due to curve out of bound.
   **   ~~~   **  Review the Standard Ratings calculations in the Engineering Reference for this coil type. Also, use Output:Diagnostics, DisplayExtraWarnings for further guidance.
   ** Warning ** The Standard Ratings is calculated for Coil:Cooling:DX:SingleSpeed = COILCOOLING 20 but not at the AHRI test condition due to curve out of bound.
   **   ~~~   **  Review the Standard Ratings calculations in the Engineering Reference for this coil type. Also, use Output:Diagnostics, DisplayExtraWarnings for further guidance.
   ** Warning ** The Standard Ratings is calculated for Coil:Cooling:DX:SingleSpeed = COILCOOLING 21 but not at the AHRI test condition due to curve out of bound.
   **   ~~~   **  Review the Standard Ratings calculations in the Engineering Reference for this coil type. Also, use Output:Diagnostics, DisplayExtraWarnings for further guidance.
   ** Warning ** The Standard Ratings is calculated for Coil:Cooling:DX:SingleSpeed = COILCOOLING 22 but not at the AHRI test condition due to curve out of bound.
   **   ~~~   **  Review the Standard Ratings calculations in the Engineering Reference for this coil type. Also, use Output:Diagnostics, DisplayExtraWarnings for further guidance.
   ** Warning ** In zone THERMAL ZONE: F2-4 1-BED CORE EAST there is unbalanced air flow. Load due to induced outdoor air is neglected.
   **   ~~~   **  Environment=FRESNO-YOSEMITE-INTL-AP SEP CLG 0.4% CONDNS DB=>MCWB, at Simulation time=09/21 24:00 - 24:15
   **   ~~~   **   Flows [kg/s]: Inlets: 0.517938  Unbalanced exhausts: 0.641250  Returns: 0.000000
   **   ~~~   **   Infiltration: 4.150989E-002  Ventilation: 0.000000  Mixing(incoming): 0.000000
   **   ~~~   **   Imbalance (excess outflow): 8.180222E-002  This error will only be reported once per zone.
   ** Warning ** In zone THERMAL ZONE: F2-4 1-BED CORE N there is unbalanced air flow. Load due to induced outdoor air is neglected.
   **   ~~~   **  Environment=FRESNO-YOSEMITE-INTL-AP SEP CLG 0.4% CONDNS DB=>MCWB, at Simulation time=09/21 24:00 - 24:15
   **   ~~~   **   Flows [kg/s]: Inlets: 0.253501  Unbalanced exhausts: 0.315157  Returns: 0.000000
   **   ~~~   **   Infiltration: 2.058721E-002  Ventilation: 0.000000  Mixing(incoming): 0.000000
   **   ~~~   **   Imbalance (excess outflow): 4.106884E-002  This error will only be reported once per zone.
   ** Warning ** In zone THERMAL ZONE: F2-4 1-BED CORE WEST there is unbalanced air flow. Load due to induced outdoor air is neglected.
   **   ~~~   **  Environment=FRESNO-YOSEMITE-INTL-AP SEP CLG 0.4% CONDNS DB=>MCWB, at Simulation time=09/21 24:00 - 24:15
   **   ~~~   **   Flows [kg/s]: Inlets: 0.506043  Unbalanced exhausts: 0.629356  Returns: 0.000000
   **   ~~~   **   Infiltration: 4.150989E-002  Ventilation: 0.000000  Mixing(incoming): 0.000000
   **   ~~~   **   Imbalance (excess outflow): 8.180222E-002  This error will only be reported once per zone.
   ** Warning ** In zone THERMAL ZONE: F2-4 1-BED NORTH there is unbalanced air flow. Load due to induced outdoor air is neglected.
   **   ~~~   **  Environment=FRESNO-YOSEMITE-INTL-AP SEP CLG 0.4% CONDNS DB=>MCWB, at Simulation time=09/21 24:00 - 24:15
   **   ~~~   **   Flows [kg/s]: Inlets: 1.287950  Unbalanced exhausts: 1.602294  Returns: 0.000000
   **   ~~~   **   Infiltration: 0.104847  Ventilation: 0.000000  Mixing(incoming): 0.000000
   **   ~~~   **   Imbalance (excess outflow): 0.209497  This error will only be reported once per zone.
   ** Warning ** In zone THERMAL ZONE: F2-4 2-BED CORE NE-NW there is unbalanced air flow. Load due to induced outdoor air is neglected.
   **   ~~~   **  Environment=FRESNO-YOSEMITE-INTL-AP SEP CLG 0.4% CONDNS DB=>MCWB, at Simulation time=09/21 24:00 - 24:15
   **   ~~~   **   Flows [kg/s]: Inlets: 0.726575  Unbalanced exhausts: 0.911543  Returns: 0.000000
   **   ~~~   **   Infiltration: 6.038020E-002  Ventilation: 0.000000  Mixing(incoming): 0.000000
   **   ~~~   **   Imbalance (excess outflow): 0.124588  This error will only be reported once per zone.
   ** Warning ** In zone THERMAL ZONE: F2-4 2-BED EAST there is unbalanced air flow. Load due to induced outdoor air is neglected.
   **   ~~~   **  Environment=FRESNO-YOSEMITE-INTL-AP SEP CLG 0.4% CONDNS DB=>MCWB, at Simulation time=09/21 24:00 - 24:15
   **   ~~~   **   Flows [kg/s]: Inlets: 1.159841  Unbalanced exhausts: 1.437293  Returns: 0.000000
   **   ~~~   **   Infiltration: 9.345557E-002  Ventilation: 0.000000  Mixing(incoming): 0.000000
   **   ~~~   **   Imbalance (excess outflow): 0.183997  This error will only be reported once per zone.
   ** Warning ** In zone THERMAL ZONE: F2-4 2-BED WEST there is unbalanced air flow. Load due to induced outdoor air is neglected.
   **   ~~~   **  Environment=FRESNO-YOSEMITE-INTL-AP SEP CLG 0.4% CONDNS DB=>MCWB, at Simulation time=09/21 24:00 - 24:15
   **   ~~~   **   Flows [kg/s]: Inlets: 1.199738  Unbalanced exhausts: 1.477190  Returns: 0.000000
   **   ~~~   **   Infiltration: 9.345557E-002  Ventilation: 0.000000  Mixing(incoming): 0.000000
   **   ~~~   **   Imbalance (excess outflow): 0.183997  This error will only be reported once per zone.
   ** Warning ** In zone THERMAL ZONE: F2-4 3-BED NE there is unbalanced air flow. Load due to induced outdoor air is neglected.
   **   ~~~   **  Environment=FRESNO-YOSEMITE-INTL-AP SEP CLG 0.4% CONDNS DB=>MCWB, at Simulation time=09/21 24:00 - 24:15
   **   ~~~   **   Flows [kg/s]: Inlets: 0.508852  Unbalanced exhausts: 0.630648  Returns: 0.000000
   **   ~~~   **   Infiltration: 4.150305E-002  Ventilation: 0.000000  Mixing(incoming): 0.000000
   **   ~~~   **   Imbalance (excess outflow): 8.029293E-002  This error will only be reported once per zone.
   ** Warning ** In zone THERMAL ZONE: F2-4 3-BED NW there is unbalanced air flow. Load due to induced outdoor air is neglected.
   **   ~~~   **  Environment=FRESNO-YOSEMITE-INTL-AP SEP CLG 0.4% CONDNS DB=>MCWB, at Simulation time=09/21 24:00 - 24:15
   **   ~~~   **   Flows [kg/s]: Inlets: 0.524575  Unbalanced exhausts: 0.646370  Returns: 0.000000
   **   ~~~   **   Infiltration: 4.150305E-002  Ventilation: 0.000000  Mixing(incoming): 0.000000
   **   ~~~   **   Imbalance (excess outflow): 8.029293E-002  This error will only be reported once per zone.
   ** Warning ** In zone THERMAL ZONE: F2-4 STUDIO SE there is unbalanced air flow. Load due to induced outdoor air is neglected.
   **   ~~~   **  Environment=FRESNO-YOSEMITE-INTL-AP SEP CLG 0.4% CONDNS DB=>MCWB, at Simulation time=09/21 24:00 - 24:15
   **   ~~~   **   Flows [kg/s]: Inlets: 0.220476  Unbalanced exhausts: 0.273035  Returns: 0.000000
   **   ~~~   **   Infiltration: 1.834530E-002  Ventilation: 0.000000  Mixing(incoming): 0.000000
   **   ~~~   **   Imbalance (excess outflow): 3.421396E-002  This error will only be reported once per zone.
   ** Warning ** In zone THERMAL ZONE: F2-4 STUDIO SW there is unbalanced air flow. Load due to induced outdoor air is neglected.
   **   ~~~   **  Environment=FRESNO-YOSEMITE-INTL-AP SEP CLG 0.4% CONDNS DB=>MCWB, at Simulation time=09/21 24:00 - 24:15
   **   ~~~   **   Flows [kg/s]: Inlets: 0.215955  Unbalanced exhausts: 0.268514  Returns: 0.000000
   **   ~~~   **   Infiltration: 1.834530E-002  Ventilation: 0.000000  Mixing(incoming): 0.000000
   **   ~~~   **   Imbalance (excess outflow): 3.421396E-002  This error will only be reported once per zone.
   ** Warning ** In zone THERMAL ZONE: F5 2-BED CORE NE-NW there is unbalanced air flow. Load due to induced outdoor air is neglected.
   **   ~~~   **  Environment=FRESNO-YOSEMITE-INTL-AP SEP CLG 0.4% CONDNS DB=>MCWB, at Simulation time=09/21 24:00 - 24:15
   **   ~~~   **   Flows [kg/s]: Inlets: 0.249480  Unbalanced exhausts: 0.311136  Returns: 0.000000
   **   ~~~   **   Infiltration: 6.061259E-002  Ventilation: 0.000000  Mixing(incoming): 0.000000
   **   ~~~   **   Imbalance (excess outflow): 1.043461E-003  This error will only be reported once per zone.
   ** Warning ** Controller:MechanicalVentilation="BASESYS5 OACTRL MECH VENT CONTROLLER", Zone OA/person rate
   **   ~~~   ** For Zone="THERMAL ZONE: F1 CORRIDOR".
   **   ~~~   ** Zone outside air per person rate not set in Design Specification Outdoor Air Object="THERMAL ZONE: F1 CORRIDOR DESIGN SPECIFICATION OUTDOOR AIR".
   ** Warning ** Controller:MechanicalVentilation="BASESYS5 OACTRL MECH VENT CONTROLLER", Zone OA/person rate
   **   ~~~   ** For Zone="THERMAL ZONE: F1 FITNESS CENTER".
   **   ~~~   ** Zone outside air per person rate not set in Design Specification Outdoor Air Object="THERMAL ZONE: F1 FITNESS CENTER DESIGN SPECIFICATION OUTDOOR AIR".
   ** Warning ** Controller:MechanicalVentilation="BASESYS5 OACTRL MECH VENT CONTROLLER", Zone OA/person rate
   **   ~~~   ** For Zone="THERMAL ZONE: F1 LEASING OFFICE".
   **   ~~~   ** Zone outside air per person rate not set in Design Specification Outdoor Air Object="THERMAL ZONE: F1 LEASING OFFICE DESIGN SPECIFICATION OUTDOOR AIR".
   ** Warning ** Controller:MechanicalVentilation="BASESYS5 OACTRL MECH VENT CONTROLLER", Zone OA/person rate
   **   ~~~   ** For Zone="THERMAL ZONE: F1 MECHANICAL ROOM".
   **   ~~~   ** Zone outside air per person rate not set in Design Specification Outdoor Air Object="THERMAL ZONE: F1 MECHANICAL ROOM DESIGN SPECIFICATION OUTDOOR AIR".
   ** Warning ** Controller:MechanicalVentilation="BASESYS5 OACTRL MECH VENT CONTROLLER", Zone OA/person rate
   **   ~~~   ** For Zone="THERMAL ZONE: F1 RETAIL N-NW".
   **   ~~~   ** Zone outside air per person rate not set in Design Specification Outdoor Air Object="THERMAL ZONE: F1 RETAIL N-NW DESIGN SPECIFICATION OUTDOOR AIR".
   ** Warning ** Controller:MechanicalVentilation="BASESYS5 OACTRL MECH VENT CONTROLLER", Zone OA/person rate
   **   ~~~   ** For Zone="THERMAL ZONE: F1 RETAIL NE".
   **   ~~~   ** Zone outside air per person rate not set in Design Specification Outdoor Air Object="THERMAL ZONE: F1 RETAIL NE DESIGN SPECIFICATION OUTDOOR AIR".
   ** Warning ** Controller:MechanicalVentilation="BASESYS5 OACTRL MECH VENT CONTROLLER", Zone OA/person rate
   **   ~~~   ** For Zone="THERMAL ZONE: F1 RETAIL SE".
   **   ~~~   ** Zone outside air per person rate not set in Design Specification Outdoor Air Object="THERMAL ZONE: F1 RETAIL SE DESIGN SPECIFICATION OUTDOOR AIR".
   ** Warning ** Controller:MechanicalVentilation="BASESYS5 OACTRL MECH VENT CONTROLLER", Zone OA/person rate
   **   ~~~   ** For Zone="THERMAL ZONE: F1 RETAIL SW".
   **   ~~~   ** Zone outside air per person rate not set in Design Specification Outdoor Air Object="THERMAL ZONE: F1 RETAIL SW DESIGN SPECIFICATION OUTDOOR AIR".
   ** Warning ** The Standard Ratings is calculated for Coil:Cooling:DX:SingleSpeed = DOAS1 COILCLG but not at the AHRI test condition due to curve out of bound.
   **   ~~~   **  Review the Standard Ratings calculations in the Engineering Reference for this coil type. Also, use Output:Diagnostics, DisplayExtraWarnings for further guidance.
   ** Warning ** Missing temperature setpoint for LeavingSetpointModulated mode Boiler named BASE BLR
   **   ~~~   **   A temperature setpoint is needed at the outlet node of a boiler in variable flow mode, use a SetpointManager
   **   ~~~   **   The overall loop setpoint will be assumed for Boiler. The simulation continues ... 
   ** Warning ** Check input. Pump nominal power or motor efficiency is set to 0, for pump={3A05A220-E784-4EFC-A2A3-EF419E9AE621}
   ** Warning ** Check input. Pump nominal power or motor efficiency is set to 0, for pump={A2C7A5A5-C152-4793-ADD1-AA1705364159}
   ** Warning ** Output:Meter:MeterFileOnly: invalid Key Name="INTERIORLIGHTS:DISTRICTCOOLING" - not found.
   ** Warning ** Output:Meter:MeterFileOnly: invalid Key Name="REFRIGERATION:GAS" - not found.
   ** Warning ** Output:Meter:MeterFileOnly: invalid Key Name="EXTERIOREQUIPMENT:DISTRICTCOOLING" - not found.
   ** Warning ** Output:Meter:MeterFileOnly: invalid Key Name="FANS:GAS" - not found.
   ** Warning ** Output:Meter:MeterFileOnly: invalid Key Name="RECEPTACLE:EXTERIOREQUIPMENT:GAS" - not found.
   ** Warning ** Output:Meter:MeterFileOnly: invalid Key Name="REFRIG:EXTERIOREQUIPMENT:ELECTRICITY" - not found.
   ** Warning ** Output:Meter:MeterFileOnly: invalid Key Name="REFRIG:INTERIOREQUIPMENT:ELECTRICITY" - not found.
   ** Warning ** Output:Meter:MeterFileOnly: invalid Key Name="COOLING:GAS" - not found.
   ** Warning ** Output:Meter:MeterFileOnly: invalid Key Name="INTERIORLIGHTS:GAS" - not found.
   ** Warning ** Output:Meter:MeterFileOnly: invalid Key Name="NONREG LTG:EXTERIORLIGHTS:ELECTRICITY" - not found.
   ** Warning ** Output:Meter:MeterFileOnly: invalid Key Name="COGENERATION:GAS" - not found.
   ** Warning ** Output:Meter:MeterFileOnly: invalid Key Name="WATERSYSTEMS:DISTRICTCOOLING" - not found.
   ** Warning ** Output:Meter:MeterFileOnly: invalid Key Name="FANS:DISTRICTCOOLING" - not found.
   ** Warning ** Output:Meter:MeterFileOnly: invalid Key Name="HEATRECOVERY:ELECTRICITY" - not found.
   ** Warning ** Output:Meter:MeterFileOnly: invalid Key Name="EXTERIORLIGHTS:ELECTRICITY" - not found.
   ** Warning ** Output:Meter:MeterFileOnly: invalid Key Name="EXTERIOREQUIPMENT:ELECTRICITY" - not found.
   ** Warning ** Output:Meter:MeterFileOnly: invalid Key Name="COGENERATION:DISTRICTHEATING" - not found.
   ** Warning ** Output:Meter:MeterFileOnly: invalid Key Name="EXTERIORLIGHTS:DISTRICTHEATING" - not found.
   ** Warning ** Output:Meter:MeterFileOnly: invalid Key Name="PROCESS:INTERIOREQUIPMENT:ELECTRICITY" - not found.
   ** Warning ** Output:Meter:MeterFileOnly: invalid Key Name="FANS:DISTRICTHEATING" - not found.
   ** Warning ** Output:Meter:MeterFileOnly: invalid Key Name="HEATREJECTION:ELECTRICITY" - not found.
   ** Warning ** Output:Meter:MeterFileOnly: invalid Key Name="HUMIDIFIER:ELECTRICITY" - not found.
   ** Warning ** Output:Meter:MeterFileOnly: invalid Key Name="COGENERATION:ELECTRICITY" - not found.
   ** Warning ** Output:Meter:MeterFileOnly: invalid Key Name="REFRIGERATION:ELECTRICITY" - not found.
   ** Warning ** Output:Meter:MeterFileOnly: invalid Key Name="INTERIOREQUIPMENT:DISTRICTHEATING" - not found.
   ** Warning ** Output:Meter:MeterFileOnly: invalid Key Name="EXTERIORLIGHTS:GAS" - not found.
   ** Warning ** Output:Meter:MeterFileOnly: invalid Key Name="HUMIDIFIER:DISTRICTCOOLING" - not found.
   ** Warning ** Output:Meter:MeterFileOnly: invalid Key Name="EXTERIOREQUIPMENT:GAS" - not found.
   ** Warning ** Output:Meter:MeterFileOnly: invalid Key Name="PUMPS:GAS" - not found.
   ** Warning ** Output:Meter:MeterFileOnly: invalid Key Name="HEATREJECTION:GAS" - not found.
   ** Warning ** Output:Meter:MeterFileOnly: invalid Key Name="HEATRECOVERY:DISTRICTHEATING" - not found.
   ** Warning ** Output:Meter:MeterFileOnly: invalid Key Name="HUMIDIFIER:GAS" - not found.
   ** Warning ** Output:Meter:MeterFileOnly: invalid Key Name="WATERSYSTEMS:DISTRICTHEATING" - not found.
   ** Warning ** Output:Meter:MeterFileOnly: invalid Key Name="HEATRECOVERY:GAS" - not found.
   ** Warning ** Output:Meter:MeterFileOnly: invalid Key Name="DISTRICTCOOLING:FACILITY" - not found.
   ** Warning ** Output:Meter:MeterFileOnly: invalid Key Name="INTERIOREQUIPMENT:DISTRICTCOOLING" - not found.
   ** Warning ** Output:Meter:MeterFileOnly: invalid Key Name="EXTERIORLIGHTS:DISTRICTCOOLING" - not found.
   ** Warning ** Output:Meter:MeterFileOnly: invalid Key Name="PUMPS:DISTRICTCOOLING" - not found.
   ** Warning ** Output:Meter:MeterFileOnly: invalid Key Name="HEATING:DISTRICTCOOLING" - not found.
   ** Warning ** Output:Meter:MeterFileOnly: invalid Key Name="COOLING:DISTRICTCOOLING" - not found.
   ** Warning ** Output:Meter:MeterFileOnly: invalid Key Name="DISTRICTHEATING:FACILITY" - not found.
   ** Warning ** Output:Meter:MeterFileOnly: invalid Key Name="HEATREJECTION:DISTRICTCOOLING" - not found.
   ** Warning ** Output:Meter:MeterFileOnly: invalid Key Name="EXTERIOREQUIPMENT:DISTRICTHEATING" - not found.
   ** Warning ** Output:Meter:MeterFileOnly: invalid Key Name="HEATRECOVERY:DISTRICTCOOLING" - not found.
   ** Warning ** Output:Meter:MeterFileOnly: invalid Key Name="COGENERATION:DISTRICTCOOLING" - not found.
   ** Warning ** Output:Meter:MeterFileOnly: invalid Key Name="REFRIGERATION:DISTRICTCOOLING" - not found.
   ** Warning ** Output:Meter:MeterFileOnly: invalid Key Name="INTERIORLIGHTS:DISTRICTHEATING" - not found.
   ** Warning ** Output:Meter:MeterFileOnly: invalid Key Name="PUMPS:DISTRICTHEATING" - not found.
   ** Warning ** Output:Meter:MeterFileOnly: invalid Key Name="HEATING:DISTRICTHEATING" - not found.
   ** Warning ** Output:Meter:MeterFileOnly: invalid Key Name="COOLING:DISTRICTHEATING" - not found.
   ** Warning ** Output:Meter:MeterFileOnly: invalid Key Name="HEATREJECTION:DISTRICTHEATING" - not found.
   ** Warning ** Output:Meter:MeterFileOnly: invalid Key Name="HUMIDIFIER:DISTRICTHEATING" - not found.
   ** Warning ** Output:Meter:MeterFileOnly: invalid Key Name="REFRIGERATION:DISTRICTHEATING" - not found.
   ** Warning ** Output:Meter:MeterFileOnly: invalid Key Name="INTERNAL TRANSPORT:INTERIOREQUIPMENT:ELECTRICITY" - not found.
   ** Warning ** Output:Meter:MeterFileOnly: invalid Key Name="RECEPTACLE:EXTERIOREQUIPMENT:ELECTRICITY" - not found.
   ** Warning ** Output:Meter:MeterFileOnly: invalid Key Name="PROCESS:EXTERIOREQUIPMENT:ELECTRICITY" - not found.
   ** Warning ** Output:Meter:MeterFileOnly: invalid Key Name="PROCESS:INTERIOREQUIPMENT:GAS" - not found.
   ** Warning ** Output:Meter:MeterFileOnly: invalid Key Name="PROCESS:EXTERIOREQUIPMENT:GAS" - not found.
   ** Warning ** Output:Meter:MeterFileOnly: invalid Key Name="REG LTG:EXTERIORLIGHTS:ELECTRICITY" - not found.
   ************* Testing Individual Branch Integrity
   ************* All Branches passed integrity testing
   ************* Testing Individual Supply Air Path Integrity
   ************* All Supply Air Paths passed integrity testing
   ************* Testing Individual Return Air Path Integrity
   ************* All Return Air Paths passed integrity testing
   ************* No node connection errors were found.
   ************* Beginning Simulation
   ** Warning ** In zone THERMAL ZONE: F5 1-BED CORE EAST there is unbalanced exhaust air flow with no airloop serving the zone with outdoor air.
   **   ~~~   **  Environment=FRESNO_723890_CZ2010, at Simulation time=01/01 00:00 - 00:15
   **   ~~~   **   Unless there is balancing infiltration / ventilation air flow, this will result in
   **   ~~~   **   load due to induced outdoor air being neglected in the simulation.
   ** Warning ** In zone THERMAL ZONE: F5 1-BED CORE N there is unbalanced exhaust air flow with no airloop serving the zone with outdoor air.
   **   ~~~   **  Environment=FRESNO_723890_CZ2010, at Simulation time=01/01 00:00 - 00:15
   **   ~~~   **   Unless there is balancing infiltration / ventilation air flow, this will result in
   **   ~~~   **   load due to induced outdoor air being neglected in the simulation.
   ** Warning ** In zone THERMAL ZONE: F5 1-BED CORE WEST there is unbalanced exhaust air flow with no airloop serving the zone with outdoor air.
   **   ~~~   **  Environment=FRESNO_723890_CZ2010, at Simulation time=01/01 00:00 - 00:15
   **   ~~~   **   Unless there is balancing infiltration / ventilation air flow, this will result in
   **   ~~~   **   load due to induced outdoor air being neglected in the simulation.
   ** Warning ** In zone THERMAL ZONE: F5 1-BED NORTH there is unbalanced exhaust air flow with no airloop serving the zone with outdoor air.
   **   ~~~   **  Environment=FRESNO_723890_CZ2010, at Simulation time=01/01 00:00 - 00:15
   **   ~~~   **   Unless there is balancing infiltration / ventilation air flow, this will result in
   **   ~~~   **   load due to induced outdoor air being neglected in the simulation.
   ** Warning ** In zone THERMAL ZONE: F5 2-BED EAST there is unbalanced exhaust air flow with no airloop serving the zone with outdoor air.
   **   ~~~   **  Environment=FRESNO_723890_CZ2010, at Simulation time=01/01 00:00 - 00:15
   **   ~~~   **   Unless there is balancing infiltration / ventilation air flow, this will result in
   **   ~~~   **   load due to induced outdoor air being neglected in the simulation.
   ** Warning ** In zone THERMAL ZONE: F5 2-BED WEST there is unbalanced exhaust air flow with no airloop serving the zone with outdoor air.
   **   ~~~   **  Environment=FRESNO_723890_CZ2010, at Simulation time=01/01 00:00 - 00:15
   **   ~~~   **   Unless there is balancing infiltration / ventilation air flow, this will result in
   **   ~~~   **   load due to induced outdoor air being neglected in the simulation.
   ** Warning ** In zone THERMAL ZONE: F5 3-BED NE there is unbalanced exhaust air flow with no airloop serving the zone with outdoor air.
   **   ~~~   **  Environment=FRESNO_723890_CZ2010, at Simulation time=01/01 00:00 - 00:15
   **   ~~~   **   Unless there is balancing infiltration / ventilation air flow, this will result in
   **   ~~~   **   load due to induced outdoor air being neglected in the simulation.
   ** Warning ** In zone THERMAL ZONE: F5 3-BED NW there is unbalanced exhaust air flow with no airloop serving the zone with outdoor air.
   **   ~~~   **  Environment=FRESNO_723890_CZ2010, at Simulation time=01/01 00:00 - 00:15
   **   ~~~   **   Unless there is balancing infiltration / ventilation air flow, this will result in
   **   ~~~   **   load due to induced outdoor air being neglected in the simulation.
   ** Warning ** In zone THERMAL ZONE: F5 STUDIO SE there is unbalanced exhaust air flow with no airloop serving the zone with outdoor air.
   **   ~~~   **  Environment=FRESNO_723890_CZ2010, at Simulation time=01/01 00:00 - 00:15
   **   ~~~   **   Unless there is balancing infiltration / ventilation air flow, this will result in
   **   ~~~   **   load due to induced outdoor air being neglected in the simulation.
   ** Warning ** In zone THERMAL ZONE: F5 STUDIO SW there is unbalanced exhaust air flow with no airloop serving the zone with outdoor air.
   **   ~~~   **  Environment=FRESNO_723890_CZ2010, at Simulation time=01/01 00:00 - 00:15
   **   ~~~   **   Unless there is balancing infiltration / ventilation air flow, this will result in
   **   ~~~   **   load due to induced outdoor air being neglected in the simulation.
   ** Warning ** SimHVAC: Maximum iterations (20) exceeded for all HVAC loops, at FRESNO_723890_CZ2010, 01/03 14:30 - 14:45
   **   ~~~   ** The solution for one or more of the Air Loop HVAC systems did not appear to converge
   **   ~~~   ** ...use Output:Diagnostics,DisplayExtraWarnings; to show more details on each max iteration exceeded.
   ** Warning ** SimHVAC: Maximum iterations (20) exceeded for all HVAC loops, at FRESNO_723890_CZ2010, 01/03 14:45 - 15:00
   **   ~~~   ** The solution for one or more of the Air Loop HVAC systems did not appear to converge
   ** Warning ** SimHVAC: Maximum iterations (20) exceeded for all HVAC loops, at FRESNO_723890_CZ2010, 01/03 15:00 - 15:15
   **   ~~~   ** The solution for one or more of the Air Loop HVAC systems did not appear to converge
   ** Warning ** SimHVAC: Maximum iterations (20) exceeded for all HVAC loops, at FRESNO_723890_CZ2010, 01/03 15:15 - 15:30
   **   ~~~   ** The solution for one or more of the Air Loop HVAC systems did not appear to converge
   ** Warning ** SimHVAC: Maximum iterations (20) exceeded for all HVAC loops, at FRESNO_723890_CZ2010, 01/03 15:30 - 15:45
   **   ~~~   ** The solution for one or more of the Air Loop HVAC systems did not appear to converge
   ** Warning ** SimHVAC: Maximum iterations (20) exceeded for all HVAC loops, at FRESNO_723890_CZ2010, 01/03 15:45 - 16:00
   **   ~~~   ** The solution for one or more of the Air Loop HVAC systems did not appear to converge
   ** Warning ** SimHVAC: Maximum iterations (20) exceeded for all HVAC loops, at FRESNO_723890_CZ2010, 01/03 16:00 - 16:15
   **   ~~~   ** The solution for one or more of the Air Loop HVAC systems did not appear to converge
   ** Warning ** SimHVAC: Maximum iterations (20) exceeded for all HVAC loops, at FRESNO_723890_CZ2010, 01/03 16:15 - 16:30
   **   ~~~   ** The solution for one or more of the Air Loop HVAC systems did not appear to converge
   ** Warning ** SimHVAC: Maximum iterations (20) exceeded for all HVAC loops, at FRESNO_723890_CZ2010, 01/03 16:30 - 16:45
   **   ~~~   ** The solution for one or more of the Air Loop HVAC systems did not appear to converge
   ** Warning ** SimHVAC: Maximum iterations (20) exceeded for all HVAC loops, at FRESNO_723890_CZ2010, 01/03 16:30 - 16:38
   **   ~~~   ** The solution for one or more of the Air Loop HVAC systems did not appear to converge
   ** Warning ** SimHVAC: Maximum iterations (20) exceeded for all HVAC loops, at FRESNO_723890_CZ2010, 01/03 16:38 - 16:45
   **   ~~~   ** The solution for one or more of the Air Loop HVAC systems did not appear to converge
   ** Warning ** SimHVAC: Maximum iterations (20) exceeded for all HVAC loops, at FRESNO_723890_CZ2010, 01/03 16:45 - 17:00
   **   ~~~   ** The solution for one or more of the Air Loop HVAC systems did not appear to converge
   ** Warning ** SimHVAC: Maximum iterations (20) exceeded for all HVAC loops, at FRESNO_723890_CZ2010, 01/03 16:45 - 16:53
   **   ~~~   ** The solution for one or more of the Air Loop HVAC systems did not appear to converge
   ** Warning ** SimHVAC: Maximum iterations (20) exceeded for all HVAC loops, at FRESNO_723890_CZ2010, 01/03 16:53 - 17:00
   **   ~~~   ** The solution for one or more of the Air Loop HVAC systems did not appear to converge
   ** Warning ** CalcDoe2DXCoil: Coil:Cooling:DX:SingleSpeed "DOAS1 COILCLG" - Full load outlet air dry-bulb temperature < 2C. This indicates the possibility of coil frost/freeze. Outlet temperature = 1.63 C.
   **   ~~~   **  ...Occurrence info = FRESNO_723890_CZ2010, 01/09 12:45 - 12:53
   **   ~~~   ** ... Possible reasons for low outlet air dry-bulb temperatures are: This DX coil
   **   ~~~   **    1) may have a low inlet air dry-bulb temperature. Inlet air temperature = 17.200 C.
   **   ~~~   **    2) may have a low air flow rate per watt of cooling capacity. Check inputs.
   **   ~~~   **    3) is used as part of a HX assisted cooling coil which uses a high sensible effectiveness. Check inputs.
   ************* Simulation Error Summary *************
   ************* There are 1 unused objects in input.
   ************* Use Output:Diagnostics,DisplayUnusedObjects; to see them.
   ************* There are 11 unused schedules in input.
   ************* There are 11 unused week schedules in input.
   ************* There are 21 unused day schedules in input.
   ************* Use Output:Diagnostics,DisplayUnusedSchedules; to see them.
   *************
   ************* ===== Recurring Error Summary =====
   ************* The following recurring error messages occurred.
   *************
   *************  ** Warning ** SimHVAC: Exceeding Maximum iterations for all HVAC loops, during FRESNO_723890_CZ2010 continues
   *************  **   ~~~   **   This error occurred 893 total times;
   *************  **   ~~~   **   during Warmup 0 times;
   *************  **   ~~~   **   during Sizing 0 times.
   *************
   *************  ** Warning ** CalcDoe2DXCoil: Coil:Cooling:DX:SingleSpeed="DOAS1 COILCLG" - Full load outlet temperature indicates a possibility of frost/freeze error continues. Outlet air temperature statistics follow:
   *************  **   ~~~   **   This error occurred 1525 total times;
   *************  **   ~~~   **   during Warmup 0 times;
   *************  **   ~~~   **   during Sizing 0 times.
   *************  **   ~~~   **   Max=1.999896  Min=-5.001027
   *************
   ************* EnergyPlus Warmup Error Summary. During Warmup: 0 Warning; 0 Severe Errors.
   ************* EnergyPlus Sizing Error Summary. During Sizing: 89 Warning; 0 Severe Errors.
   ************* EnergyPlus Completed Successfully-- 2636 Warning; 0 Severe Errors; Elapsed Time=00hr 03min  7.81sec
