Program Version,EnergyPlus, Version 9.0.1-bb7ca4f0da, YMD=2019.12.02 18:36,
   ************* Beginning Zone Sizing Calculations
   ** Warning ** ProcessScheduleInput: Schedule:Day:Interval="{16A39128-B7FE-4E58-A7B5-D9A9F917C119}", Blank Schedule Type Limits Name input -- will not be validated.
   ** Warning ** ProcessScheduleInput: Schedule:Day:Interval="{16E2CB26-3E1C-47FE-8EE2-504C94CDB74F}", Blank Schedule Type Limits Name input -- will not be validated.
   ** Warning ** ProcessScheduleInput: Schedule:Day:Interval="{3102AF4D-C35E-4F0D-A639-4864D3BDBF1B}", Blank Schedule Type Limits Name input -- will not be validated.
   ** Warning ** ProcessScheduleInput: Schedule:Day:Interval="{425D942D-FD77-4BD2-A961-4A1900E055C9}", Blank Schedule Type Limits Name input -- will not be validated.
   ** Warning ** ProcessScheduleInput: Schedule:Day:Interval="{45F0C626-0BFE-4346-90E3-02364C622B03}", Blank Schedule Type Limits Name input -- will not be validated.
   ** Warning ** ProcessScheduleInput: Schedule:Day:Interval="{473A46EC-B2E4-4B88-B488-46EDB10F55A6}", Blank Schedule Type Limits Name input -- will not be validated.
   ** Warning ** ProcessScheduleInput: Schedule:Day:Interval="{4D1AEEC0-2155-4EA9-A834-F743A38C80AF}", Blank Schedule Type Limits Name input -- will not be validated.
   ** Warning ** ProcessScheduleInput: Schedule:Day:Interval="{57736481-3F0B-46BC-8486-53A60188644E}", Blank Schedule Type Limits Name input -- will not be validated.
   ** Warning ** ProcessScheduleInput: Schedule:Day:Interval="{5B0F21E6-85E9-43B1-9741-23B752744E51}", Blank Schedule Type Limits Name input -- will not be validated.
   ** Warning ** ProcessScheduleInput: Schedule:Day:Interval="{6443B3D4-C38F-4A65-A877-C6257DC4CEB5}", Blank Schedule Type Limits Name input -- will not be validated.
   ** Warning ** ProcessScheduleInput: Schedule:Day:Interval="{6E5C58A5-9FB6-4FA5-8BAE-A8B4E4116234}", Blank Schedule Type Limits Name input -- will not be validated.
   ** Warning ** ProcessScheduleInput: Schedule:Day:Interval="{7202B782-7E30-4208-8298-A6C40D62B004}", Blank Schedule Type Limits Name input -- will not be validated.
   ** Warning ** ProcessScheduleInput: Schedule:Day:Interval="{779A3FF4-8AD3-4ABF-80DD-D57A7CD1CEC0}", Blank Schedule Type Limits Name input -- will not be validated.
   ** Warning ** ProcessScheduleInput: Schedule:Day:Interval="{8112F047-60B2-46E3-8A00-7E11AC4BB4C3}", Blank Schedule Type Limits Name input -- will not be validated.
   ** Warning ** ProcessScheduleInput: Schedule:Day:Interval="{84EF4862-BE4B-4C25-A1D8-1D457940A2E5}", Blank Schedule Type Limits Name input -- will not be validated.
   ** Warning ** ProcessScheduleInput: Schedule:Day:Interval="{8A00EA08-3084-4217-A6DE-47EEB6FCA7A0}", Blank Schedule Type Limits Name input -- will not be validated.
   ** Warning ** ProcessScheduleInput: Schedule:Day:Interval="{8DD8473C-E4D8-4C20-9529-B7C24566482A}", Blank Schedule Type Limits Name input -- will not be validated.
   ** Warning ** ProcessScheduleInput: Schedule:Day:Interval="{9793BFD8-B576-402F-B7B9-FCD4B4BBA17D}", Blank Schedule Type Limits Name input -- will not be validated.
   ** Warning ** ProcessScheduleInput: Schedule:Day:Interval="{999923F1-85AA-49F4-8131-5AE564FA531B}", Blank Schedule Type Limits Name input -- will not be validated.
   ** Warning ** ProcessScheduleInput: Schedule:Day:Interval="{B6F9FEB9-7C2A-4AF1-ADE0-1AD7A69731AE}", Blank Schedule Type Limits Name input -- will not be validated.
   ** Warning ** ProcessScheduleInput: Schedule:Day:Interval="{BA269FA5-A524-4543-836E-15606109C86E}", Blank Schedule Type Limits Name input -- will not be validated.
   ** Warning ** ProcessScheduleInput: Schedule:Day:Interval="{C1484E5E-B663-482E-95E8-4BCB65BB20A1}", Blank Schedule Type Limits Name input -- will not be validated.
   ** Warning ** ProcessScheduleInput: Schedule:Day:Interval="{EB0356CD-464B-4202-A74B-14B46CE20C66}", Blank Schedule Type Limits Name input -- will not be validated.
   ** Warning ** ProcessScheduleInput: Schedule:Day:Interval="{EDB7666B-6746-489E-90B7-F5A86E486085}", Blank Schedule Type Limits Name input -- will not be validated.
   ** Warning ** ProcessScheduleInput: Schedule:Day:Interval="{EF314114-B8E3-4DEC-818D-25D9BAEE6F86}", Blank Schedule Type Limits Name input -- will not be validated.
   ** Warning ** ProcessScheduleInput: Schedule:Day:Interval="{FD9545FE-7696-468B-8843-D6305A40F016}", Blank Schedule Type Limits Name input -- will not be validated.
   ** Warning ** ProcessScheduleInput: Schedule:Day:Interval="{FDCA7098-948E-4897-8021-DEB55813FCBA}", Blank Schedule Type Limits Name input -- will not be validated.
   ** Warning ** ProcessScheduleInput: Schedule:Day:Interval="{FE1A9F72-0214-4491-9E2B-99E307C9F460}", Blank Schedule Type Limits Name input -- will not be validated.
   ** Warning ** ProcessScheduleInput: Schedule:Year="F1 BUSINESS CENTER TARGET SHW TEMP", Blank Schedule Type Limits Name input -- will not be validated.
   ** Warning ** ProcessScheduleInput: Schedule:Year="F1 ELEVATOR CORE TARGET SHW TEMP", Blank Schedule Type Limits Name input -- will not be validated.
   ** Warning ** ProcessScheduleInput: Schedule:Year="F1 ELEVATOR N TARGET SHW TEMP", Blank Schedule Type Limits Name input -- will not be validated.
   ** Warning ** ProcessScheduleInput: Schedule:Year="F1 ELEVATOR S TARGET SHW TEMP", Blank Schedule Type Limits Name input -- will not be validated.
   ** Warning ** ProcessScheduleInput: Schedule:Year="F1 FITNESS CENTER TARGET SHW TEMP", Blank Schedule Type Limits Name input -- will not be validated.
   ** Warning ** ProcessScheduleInput: Schedule:Year="F1 LEASING OFFICE TARGET SHW TEMP", Blank Schedule Type Limits Name input -- will not be validated.
   ** Warning ** ProcessScheduleInput: Schedule:Year="F1 LOUNGE TARGET SHW TEMP", Blank Schedule Type Limits Name input -- will not be validated.
   ** Warning ** ProcessScheduleInput: Schedule:Year="F1 MECHANICAL ROOM TARGET SHW TEMP", Blank Schedule Type Limits Name input -- will not be validated.
   ** Warning ** ProcessScheduleInput: Schedule:Year="F1 RETAIL N CORE TARGET SHW TEMP", Blank Schedule Type Limits Name input -- will not be validated.
   ** Warning ** ProcessScheduleInput: Schedule:Year="F1 RETAIL NE CORE TARGET SHW TEMP", Blank Schedule Type Limits Name input -- will not be validated.
   ** Warning ** ProcessScheduleInput: Schedule:Year="F1 RETAIL NE INNER TARGET SHW TEMP", Blank Schedule Type Limits Name input -- will not be validated.
   ** Warning ** ProcessScheduleInput: Schedule:Year="F1 RETAIL NE OUTER TARGET SHW TEMP", Blank Schedule Type Limits Name input -- will not be validated.
   ** Warning ** ProcessScheduleInput: Schedule:Year="F1 RETAIL NW INNER CORE TARGET SHW TEMP", Blank Schedule Type Limits Name input -- will not be validated.
   ** Warning ** ProcessScheduleInput: Schedule:Year="F1 RETAIL NW OUTER CORE TARGET SHW TEMP", Blank Schedule Type Limits Name input -- will not be validated.
   ** Warning ** ProcessScheduleInput: Schedule:Year="F1 RETAIL NW OUTER TARGET SHW TEMP", Blank Schedule Type Limits Name input -- will not be validated.
   ** Warning ** ProcessScheduleInput: Schedule:Year="F1 RETAIL SE BOTTOM TARGET SHW TEMP", Blank Schedule Type Limits Name input -- will not be validated.
   ** Warning ** ProcessScheduleInput: Schedule:Year="F1 RETAIL SE TOP TARGET SHW TEMP", Blank Schedule Type Limits Name input -- will not be validated.
   ** Warning ** ProcessScheduleInput: Schedule:Year="F1 RETAIL SW BOTTOM TARGET SHW TEMP", Blank Schedule Type Limits Name input -- will not be validated.
   ** Warning ** ProcessScheduleInput: Schedule:Year="F1 RETAIL SW CORE TARGET SHW TEMP", Blank Schedule Type Limits Name input -- will not be validated.
   ** Warning ** ProcessScheduleInput: Schedule:Year="F1 RETAIL SW TOP TARGET SHW TEMP", Blank Schedule Type Limits Name input -- will not be validated.
   ** Warning ** ProcessScheduleInput: Schedule:Year="F2-4 ELEVATOR CORE TARGET SHW TEMP", Blank Schedule Type Limits Name input -- will not be validated.
   ** Warning ** ProcessScheduleInput: Schedule:Year="F2-4 ELEVATOR N TARGET SHW TEMP", Blank Schedule Type Limits Name input -- will not be validated.
   ** Warning ** ProcessScheduleInput: Schedule:Year="F2-4 ELEVATOR S TARGET SHW TEMP", Blank Schedule Type Limits Name input -- will not be validated.
   ** Warning ** ProcessScheduleInput: Schedule:Year="F2-4 LAUNDRY TARGET SHW TEMP", Blank Schedule Type Limits Name input -- will not be validated.
   ** Warning ** ProcessScheduleInput: Schedule:Year="F5 ELEVATOR CORE TARGET SHW TEMP", Blank Schedule Type Limits Name input -- will not be validated.
   ** Warning ** ProcessScheduleInput: Schedule:Year="F5 ELEVATOR N TARGET SHW TEMP", Blank Schedule Type Limits Name input -- will not be validated.
   ** Warning ** ProcessScheduleInput: Schedule:Year="F5 ELEVATOR S TARGET SHW TEMP", Blank Schedule Type Limits Name input -- will not be validated.
   ** Warning ** ProcessScheduleInput: Schedule:Year="F5 LAUNDRY TARGET SHW TEMP", Blank Schedule Type Limits Name input -- will not be validated.
   ** Warning ** ProcessScheduleInput: Schedule:Constant="ALWAYS OFF DISCRETE", Blank Schedule Type Limits Name input -- will not be validated.
   ** Warning ** ProcessScheduleInput: Schedule:Constant="ALWAYS ON CONTINUOUS", Blank Schedule Type Limits Name input -- will not be validated.
   ** Warning ** CalculateZoneVolume: 22 zones are not fully enclosed. For more details use:  Output:Diagnostics,DisplayExtrawarnings; 
   ** Warning ** GetDaylightingControls: Fraction of Zone controlled by the Daylighting reference points is < 1.0.
   **   ~~~   ** ..discovered in "Daylighting:Controls" for Zone="THERMAL ZONE: F1 CORRIDOR", only 0.28 of the zone is controlled.
   ** Warning ** GetDaylightingControls: Fraction of Zone controlled by the Daylighting reference points is < 1.0.
   **   ~~~   ** ..discovered in "Daylighting:Controls" for Zone="THERMAL ZONE: F1 RETAIL N-NW", only 0.10 of the zone is controlled.
   ** Warning ** GetDaylightingControls: Fraction of Zone controlled by the Daylighting reference points is < 1.0.
   **   ~~~   ** ..discovered in "Daylighting:Controls" for Zone="THERMAL ZONE: F1 RETAIL NE", only 0.14 of the zone is controlled.
   ** Warning ** GetDaylightingControls: Fraction of Zone controlled by the Daylighting reference points is < 1.0.
   **   ~~~   ** ..discovered in "Daylighting:Controls" for Zone="THERMAL ZONE: F1 RETAIL SE", only 0.40 of the zone is controlled.
   ** Warning ** GetDaylightingControls: Fraction of Zone controlled by the Daylighting reference points is < 1.0.
   **   ~~~   ** ..discovered in "Daylighting:Controls" for Zone="THERMAL ZONE: F1 RETAIL SW", only 0.36 of the zone is controlled.
   ** Warning ** GetSimpleAirModelInputs: ZoneInfiltration:DesignFlowRate="F1 MECHANICAL ROOM SPACE INFILTRATION DESIGN FLOW RATE 1", Design Flow Rate Calculation Method specifies Flow per Exterior Surface Area, but Exterior Wall Area = 0.  0 Infiltration will result.
   ** Warning ** GetSimpleAirModelInputs: ZoneInfiltration:DesignFlowRate="PARKING GARAGE SPACE INFILTRATION DESIGN FLOW RATE 1", Design Flow Rate Calculation Method specifies Flow per Exterior Surface Area, but Exterior Wall Area = 0.  0 Infiltration will result.
   ** Warning ** SetUpZoneSizingArrays: Requested Sizing for Zone="THERMAL ZONE: PARKING GARAGE", Zone has no thermostat (ref: ZoneControl:Thermostat, et al)
   ** Warning ** Calculated design cooling load for zone=THERMAL ZONE: PARKING GARAGE is zero.
   **   ~~~   ** Check Sizing:Zone and ZoneControl:Thermostat inputs.
   ** Warning ** Calculated design heating load for zone=THERMAL ZONE: PARKING GARAGE is zero.
   **   ~~~   ** Check Sizing:Zone and ZoneControl:Thermostat inputs.
   ************* Beginning System Sizing Calculations
   ** Warning ** Since Zone Minimum Air Flow Input Method = FIXEDFLOWRATE, input for Constant Minimum Air Flow Fraction will be ignored.
   **   ~~~   ** Occurs in AirTerminal:SingleDuct:VAV:Reheat = BASEVAV TRMLUNIT
   ** Warning ** Since Damper Heating Action = REVERSE, input for Maximum Flow Fraction During Reheat will be ignored.
   **   ~~~   ** Occurs in AirTerminal:SingleDuct:VAV:Reheat = BASEVAV TRMLUNIT
   ** Warning ** Since Zone Minimum Air Flow Input Method = FIXEDFLOWRATE, input for Constant Minimum Air Flow Fraction will be ignored.
   **   ~~~   ** Occurs in AirTerminal:SingleDuct:VAV:Reheat = BASEVAV TRMLUNIT-2
   ** Warning ** Since Damper Heating Action = REVERSE, input for Maximum Flow Fraction During Reheat will be ignored.
   **   ~~~   ** Occurs in AirTerminal:SingleDuct:VAV:Reheat = BASEVAV TRMLUNIT-2
   ** Warning ** Since Zone Minimum Air Flow Input Method = FIXEDFLOWRATE, input for Constant Minimum Air Flow Fraction will be ignored.
   **   ~~~   ** Occurs in AirTerminal:SingleDuct:VAV:Reheat = BASEVAV TRMLUNIT-4
   ** Warning ** Since Damper Heating Action = REVERSE, input for Maximum Flow Fraction During Reheat will be ignored.
   **   ~~~   ** Occurs in AirTerminal:SingleDuct:VAV:Reheat = BASEVAV TRMLUNIT-4
   ** Warning ** Since Zone Minimum Air Flow Input Method = FIXEDFLOWRATE, input for Constant Minimum Air Flow Fraction will be ignored.
   **   ~~~   ** Occurs in AirTerminal:SingleDuct:VAV:Reheat = BASEVAV TRMLUNIT-5
   ** Warning ** Since Damper Heating Action = REVERSE, input for Maximum Flow Fraction During Reheat will be ignored.
   **   ~~~   ** Occurs in AirTerminal:SingleDuct:VAV:Reheat = BASEVAV TRMLUNIT-5
   ** Warning ** Since Zone Minimum Air Flow Input Method = FIXEDFLOWRATE, input for Constant Minimum Air Flow Fraction will be ignored.
   **   ~~~   ** Occurs in AirTerminal:SingleDuct:VAV:Reheat = BASEVAV TRMLUNIT-3
   ** Warning ** Since Damper Heating Action = REVERSE, input for Maximum Flow Fraction During Reheat will be ignored.
   **   ~~~   ** Occurs in AirTerminal:SingleDuct:VAV:Reheat = BASEVAV TRMLUNIT-3
   ** Warning ** Since Zone Minimum Air Flow Input Method = FIXEDFLOWRATE, input for Constant Minimum Air Flow Fraction will be ignored.
   **   ~~~   ** Occurs in AirTerminal:SingleDuct:VAV:Reheat = BASEVAV TRMLUNIT-6
   ** Warning ** Since Damper Heating Action = REVERSE, input for Maximum Flow Fraction During Reheat will be ignored.
   **   ~~~   ** Occurs in AirTerminal:SingleDuct:VAV:Reheat = BASEVAV TRMLUNIT-6
   ** Warning ** Since Zone Minimum Air Flow Input Method = FIXEDFLOWRATE, input for Constant Minimum Air Flow Fraction will be ignored.
   **   ~~~   ** Occurs in AirTerminal:SingleDuct:VAV:Reheat = BASEVAV TRMLUNIT-7
   ** Warning ** Since Damper Heating Action = REVERSE, input for Maximum Flow Fraction During Reheat will be ignored.
   **   ~~~   ** Occurs in AirTerminal:SingleDuct:VAV:Reheat = BASEVAV TRMLUNIT-7
   ** Warning ** Since Zone Minimum Air Flow Input Method = FIXEDFLOWRATE, input for Constant Minimum Air Flow Fraction will be ignored.
   **   ~~~   ** Occurs in AirTerminal:SingleDuct:VAV:Reheat = BASEVAV TRMLUNIT-8
   ** Warning ** Since Damper Heating Action = REVERSE, input for Maximum Flow Fraction During Reheat will be ignored.
   **   ~~~   ** Occurs in AirTerminal:SingleDuct:VAV:Reheat = BASEVAV TRMLUNIT-8
   ** Warning ** Since Zone Minimum Air Flow Input Method = FIXEDFLOWRATE, input for Constant Minimum Air Flow Fraction will be ignored.
   **   ~~~   ** Occurs in AirTerminal:SingleDuct:VAV:Reheat = BASEVAV TRMLUNIT-9
   ** Warning ** Since Damper Heating Action = REVERSE, input for Maximum Flow Fraction During Reheat will be ignored.
   **   ~~~   ** Occurs in AirTerminal:SingleDuct:VAV:Reheat = BASEVAV TRMLUNIT-9
   ** Warning ** Since Zone Minimum Air Flow Input Method = FIXEDFLOWRATE, input for Constant Minimum Air Flow Fraction will be ignored.
   **   ~~~   ** Occurs in AirTerminal:SingleDuct:VAV:Reheat = BASEVAV TRMLUNIT-10
   ** Warning ** Since Damper Heating Action = REVERSE, input for Maximum Flow Fraction During Reheat will be ignored.
   **   ~~~   ** Occurs in AirTerminal:SingleDuct:VAV:Reheat = BASEVAV TRMLUNIT-10
   ** Warning ** GetDXCoils: Coil:Heating:DX:SingleSpeed="COILHTG 3" curve values
   **   ~~~   ** ... Energy Input Ratio Function of Flow Fraction Curve Name = COILHTGHPEIRRATIO_FCFMRATIO output is not equal to 1.0 (+ or - 10%) at rated conditions.
   **   ~~~   ** ... Curve output at rated conditions = 1.380
   ** Warning ** GetDXCoils: Coil:Heating:DX:SingleSpeed="COILHTG 1" curve values
   **   ~~~   ** ... Energy Input Ratio Function of Flow Fraction Curve Name = COILHTGHPEIRRATIO_FCFMRATIO output is not equal to 1.0 (+ or - 10%) at rated conditions.
   **   ~~~   ** ... Curve output at rated conditions = 1.380
   ** Warning ** GetDXCoils: Coil:Heating:DX:SingleSpeed="COILHTG 2" curve values
   **   ~~~   ** ... Energy Input Ratio Function of Flow Fraction Curve Name = COILHTGHPEIRRATIO_FCFMRATIO output is not equal to 1.0 (+ or - 10%) at rated conditions.
   **   ~~~   ** ... Curve output at rated conditions = 1.380
   ** Warning ** GetDXCoils: Coil:Heating:DX:SingleSpeed="COILHTG 4" curve values
   **   ~~~   ** ... Energy Input Ratio Function of Flow Fraction Curve Name = COILHTGHPEIRRATIO_FCFMRATIO output is not equal to 1.0 (+ or - 10%) at rated conditions.
   **   ~~~   ** ... Curve output at rated conditions = 1.380
   ** Warning ** GetDXCoils: Coil:Heating:DX:SingleSpeed="COILHTG 5" curve values
   **   ~~~   ** ... Energy Input Ratio Function of Flow Fraction Curve Name = COILHTGHPEIRRATIO_FCFMRATIO output is not equal to 1.0 (+ or - 10%) at rated conditions.
   **   ~~~   ** ... Curve output at rated conditions = 1.380
   ** Warning ** GetDXCoils: Coil:Heating:DX:SingleSpeed="COILHTG 6" curve values
   **   ~~~   ** ... Energy Input Ratio Function of Flow Fraction Curve Name = COILHTGHPEIRRATIO_FCFMRATIO output is not equal to 1.0 (+ or - 10%) at rated conditions.
   **   ~~~   ** ... Curve output at rated conditions = 1.380
   ** Warning ** GetDXCoils: Coil:Heating:DX:SingleSpeed="COILHTG 7" curve values
   **   ~~~   ** ... Energy Input Ratio Function of Flow Fraction Curve Name = COILHTGHPEIRRATIO_FCFMRATIO output is not equal to 1.0 (+ or - 10%) at rated conditions.
   **   ~~~   ** ... Curve output at rated conditions = 1.380
   ** Warning ** GetDXCoils: Coil:Heating:DX:SingleSpeed="COILHTG 8" curve values
   **   ~~~   ** ... Energy Input Ratio Function of Flow Fraction Curve Name = COILHTGHPEIRRATIO_FCFMRATIO output is not equal to 1.0 (+ or - 10%) at rated conditions.
   **   ~~~   ** ... Curve output at rated conditions = 1.380
   ** Warning ** GetDXCoils: Coil:Heating:DX:SingleSpeed="COILHTG 9" curve values
   **   ~~~   ** ... Energy Input Ratio Function of Flow Fraction Curve Name = COILHTGHPEIRRATIO_FCFMRATIO output is not equal to 1.0 (+ or - 10%) at rated conditions.
   **   ~~~   ** ... Curve output at rated conditions = 1.380
   ** Warning ** GetDXCoils: Coil:Heating:DX:SingleSpeed="COILHTG 10" curve values
   **   ~~~   ** ... Energy Input Ratio Function of Flow Fraction Curve Name = COILHTGHPEIRRATIO_FCFMRATIO output is not equal to 1.0 (+ or - 10%) at rated conditions.
   **   ~~~   ** ... Curve output at rated conditions = 1.380
   ** Warning ** GetDXCoils: Coil:Heating:DX:SingleSpeed="COILHTG 11" curve values
   **   ~~~   ** ... Energy Input Ratio Function of Flow Fraction Curve Name = COILHTGHPEIRRATIO_FCFMRATIO output is not equal to 1.0 (+ or - 10%) at rated conditions.
   **   ~~~   ** ... Curve output at rated conditions = 1.380
   ** Warning ** GetDXCoils: Coil:Heating:DX:SingleSpeed="COILHTG 14" curve values
   **   ~~~   ** ... Energy Input Ratio Function of Flow Fraction Curve Name = COILHTGHPEIRRATIO_FCFMRATIO output is not equal to 1.0 (+ or - 10%) at rated conditions.
   **   ~~~   ** ... Curve output at rated conditions = 1.380
   ** Warning ** GetDXCoils: Coil:Heating:DX:SingleSpeed="COILHTG 12" curve values
   **   ~~~   ** ... Energy Input Ratio Function of Flow Fraction Curve Name = COILHTGHPEIRRATIO_FCFMRATIO output is not equal to 1.0 (+ or - 10%) at rated conditions.
   **   ~~~   ** ... Curve output at rated conditions = 1.380
   ** Warning ** GetDXCoils: Coil:Heating:DX:SingleSpeed="COILHTG 13" curve values
   **   ~~~   ** ... Energy Input Ratio Function of Flow Fraction Curve Name = COILHTGHPEIRRATIO_FCFMRATIO output is not equal to 1.0 (+ or - 10%) at rated conditions.
   **   ~~~   ** ... Curve output at rated conditions = 1.380
   ** Warning ** GetDXCoils: Coil:Heating:DX:SingleSpeed="COILHTG 15" curve values
   **   ~~~   ** ... Energy Input Ratio Function of Flow Fraction Curve Name = COILHTGHPEIRRATIO_FCFMRATIO output is not equal to 1.0 (+ or - 10%) at rated conditions.
   **   ~~~   ** ... Curve output at rated conditions = 1.380
   ** Warning ** GetDXCoils: Coil:Heating:DX:SingleSpeed="COILHTG 16" curve values
   **   ~~~   ** ... Energy Input Ratio Function of Flow Fraction Curve Name = COILHTGHPEIRRATIO_FCFMRATIO output is not equal to 1.0 (+ or - 10%) at rated conditions.
   **   ~~~   ** ... Curve output at rated conditions = 1.380
   ** Warning ** GetDXCoils: Coil:Heating:DX:SingleSpeed="COILHTG 17" curve values
   **   ~~~   ** ... Energy Input Ratio Function of Flow Fraction Curve Name = COILHTGHPEIRRATIO_FCFMRATIO output is not equal to 1.0 (+ or - 10%) at rated conditions.
   **   ~~~   ** ... Curve output at rated conditions = 1.380
   ** Warning ** GetDXCoils: Coil:Heating:DX:SingleSpeed="COILHTG 18" curve values
   **   ~~~   ** ... Energy Input Ratio Function of Flow Fraction Curve Name = COILHTGHPEIRRATIO_FCFMRATIO output is not equal to 1.0 (+ or - 10%) at rated conditions.
   **   ~~~   ** ... Curve output at rated conditions = 1.380
   ** Warning ** GetDXCoils: Coil:Heating:DX:SingleSpeed="COILHTG 19" curve values
   **   ~~~   ** ... Energy Input Ratio Function of Flow Fraction Curve Name = COILHTGHPEIRRATIO_FCFMRATIO output is not equal to 1.0 (+ or - 10%) at rated conditions.
   **   ~~~   ** ... Curve output at rated conditions = 1.380
   ** Warning ** GetDXCoils: Coil:Heating:DX:SingleSpeed="COILHTG 20" curve values
   **   ~~~   ** ... Energy Input Ratio Function of Flow Fraction Curve Name = COILHTGHPEIRRATIO_FCFMRATIO output is not equal to 1.0 (+ or - 10%) at rated conditions.
   **   ~~~   ** ... Curve output at rated conditions = 1.380
   ** Warning ** GetDXCoils: Coil:Heating:DX:SingleSpeed="COILHTG 21" curve values
   **   ~~~   ** ... Energy Input Ratio Function of Flow Fraction Curve Name = COILHTGHPEIRRATIO_FCFMRATIO output is not equal to 1.0 (+ or - 10%) at rated conditions.
   **   ~~~   ** ... Curve output at rated conditions = 1.380
   ** Warning ** GetDXCoils: Coil:Heating:DX:SingleSpeed="COILHTG 22" curve values
   **   ~~~   ** ... Energy Input Ratio Function of Flow Fraction Curve Name = COILHTGHPEIRRATIO_FCFMRATIO output is not equal to 1.0 (+ or - 10%) at rated conditions.
   **   ~~~   ** ... Curve output at rated conditions = 1.380
   ** Warning ** GetDXCoils: Coil:Heating:DX:SingleSpeed="DOAS1 COILHTG" curve values
   **   ~~~   ** ... Energy Input Ratio Function of Flow Fraction Curve Name = COILHTGHPEIRRATIO_FCFMRATIO output is not equal to 1.0 (+ or - 10%) at rated conditions.
   **   ~~~   ** ... Curve output at rated conditions = 1.380
   ************* Beginning Plant Sizing Calculations
   ** Warning ** The Standard Ratings is calculated for Coil:Cooling:DX:SingleSpeed = COILCOOLING 3 but not at the AHRI test condition due to curve out of bound.
   **   ~~~   **  Review the Standard Ratings calculations in the Engineering Reference for this coil type. Also, use Output:Diagnostics, DisplayExtraWarnings for further guidance.
   ** Warning ** The Standard Ratings is calculated for Coil:Heating:DX:SingleSpeed = COILHTG 3 but not at the AHRI test condition due to curve out of bound.
   **   ~~~   **  Review the Standard Ratings calculations in the Engineering Reference for this coil type. Also, use Output:Diagnostics, DisplayExtraWarnings for further guidance.
   ** Warning ** The Standard Ratings is calculated for Coil:Cooling:DX:SingleSpeed = COILCOOLING 1 but not at the AHRI test condition due to curve out of bound.
   **   ~~~   **  Review the Standard Ratings calculations in the Engineering Reference for this coil type. Also, use Output:Diagnostics, DisplayExtraWarnings for further guidance.
   ** Warning ** The Standard Ratings is calculated for Coil:Heating:DX:SingleSpeed = COILHTG 1 but not at the AHRI test condition due to curve out of bound.
   **   ~~~   **  Review the Standard Ratings calculations in the Engineering Reference for this coil type. Also, use Output:Diagnostics, DisplayExtraWarnings for further guidance.
   ** Warning ** The Standard Ratings is calculated for Coil:Cooling:DX:SingleSpeed = COILCOOLING 2 but not at the AHRI test condition due to curve out of bound.
   **   ~~~   **  Review the Standard Ratings calculations in the Engineering Reference for this coil type. Also, use Output:Diagnostics, DisplayExtraWarnings for further guidance.
   ** Warning ** The Standard Ratings is calculated for Coil:Heating:DX:SingleSpeed = COILHTG 2 but not at the AHRI test condition due to curve out of bound.
   **   ~~~   **  Review the Standard Ratings calculations in the Engineering Reference for this coil type. Also, use Output:Diagnostics, DisplayExtraWarnings for further guidance.
   ** Warning ** The Standard Ratings is calculated for Coil:Cooling:DX:SingleSpeed = COILCOOLING 4 but not at the AHRI test condition due to curve out of bound.
   **   ~~~   **  Review the Standard Ratings calculations in the Engineering Reference for this coil type. Also, use Output:Diagnostics, DisplayExtraWarnings for further guidance.
   ** Warning ** The Standard Ratings is calculated for Coil:Heating:DX:SingleSpeed = COILHTG 4 but not at the AHRI test condition due to curve out of bound.
   **   ~~~   **  Review the Standard Ratings calculations in the Engineering Reference for this coil type. Also, use Output:Diagnostics, DisplayExtraWarnings for further guidance.
   ** Warning ** The Standard Ratings is calculated for Coil:Cooling:DX:SingleSpeed = COILCOOLING 5 but not at the AHRI test condition due to curve out of bound.
   **   ~~~   **  Review the Standard Ratings calculations in the Engineering Reference for this coil type. Also, use Output:Diagnostics, DisplayExtraWarnings for further guidance.
   ** Warning ** The Standard Ratings is calculated for Coil:Heating:DX:SingleSpeed = COILHTG 5 but not at the AHRI test condition due to curve out of bound.
   **   ~~~   **  Review the Standard Ratings calculations in the Engineering Reference for this coil type. Also, use Output:Diagnostics, DisplayExtraWarnings for further guidance.
   ** Warning ** The Standard Ratings is calculated for Coil:Cooling:DX:SingleSpeed = COILCOOLING 6 but not at the AHRI test condition due to curve out of bound.
   **   ~~~   **  Review the Standard Ratings calculations in the Engineering Reference for this coil type. Also, use Output:Diagnostics, DisplayExtraWarnings for further guidance.
   ** Warning ** The Standard Ratings is calculated for Coil:Heating:DX:SingleSpeed = COILHTG 6 but not at the AHRI test condition due to curve out of bound.
   **   ~~~   **  Review the Standard Ratings calculations in the Engineering Reference for this coil type. Also, use Output:Diagnostics, DisplayExtraWarnings for further guidance.
   ** Warning ** The Standard Ratings is calculated for Coil:Cooling:DX:SingleSpeed = COILCOOLING 7 but not at the AHRI test condition due to curve out of bound.
   **   ~~~   **  Review the Standard Ratings calculations in the Engineering Reference for this coil type. Also, use Output:Diagnostics, DisplayExtraWarnings for further guidance.
   ** Warning ** The Standard Ratings is calculated for Coil:Heating:DX:SingleSpeed = COILHTG 7 but not at the AHRI test condition due to curve out of bound.
   **   ~~~   **  Review the Standard Ratings calculations in the Engineering Reference for this coil type. Also, use Output:Diagnostics, DisplayExtraWarnings for further guidance.
   ** Warning ** The Standard Ratings is calculated for Coil:Cooling:DX:SingleSpeed = COILCOOLING 8 but not at the AHRI test condition due to curve out of bound.
   **   ~~~   **  Review the Standard Ratings calculations in the Engineering Reference for this coil type. Also, use Output:Diagnostics, DisplayExtraWarnings for further guidance.
   ** Warning ** The Standard Ratings is calculated for Coil:Heating:DX:SingleSpeed = COILHTG 8 but not at the AHRI test condition due to curve out of bound.
   **   ~~~   **  Review the Standard Ratings calculations in the Engineering Reference for this coil type. Also, use Output:Diagnostics, DisplayExtraWarnings for further guidance.
   ** Warning ** The Standard Ratings is calculated for Coil:Cooling:DX:SingleSpeed = COILCOOLING 9 but not at the AHRI test condition due to curve out of bound.
   **   ~~~   **  Review the Standard Ratings calculations in the Engineering Reference for this coil type. Also, use Output:Diagnostics, DisplayExtraWarnings for further guidance.
   ** Warning ** The Standard Ratings is calculated for Coil:Heating:DX:SingleSpeed = COILHTG 9 but not at the AHRI test condition due to curve out of bound.
   **   ~~~   **  Review the Standard Ratings calculations in the Engineering Reference for this coil type. Also, use Output:Diagnostics, DisplayExtraWarnings for further guidance.
   ** Warning ** The Standard Ratings is calculated for Coil:Cooling:DX:SingleSpeed = COILCOOLING 10 but not at the AHRI test condition due to curve out of bound.
   **   ~~~   **  Review the Standard Ratings calculations in the Engineering Reference for this coil type. Also, use Output:Diagnostics, DisplayExtraWarnings for further guidance.
   ** Warning ** The Standard Ratings is calculated for Coil:Heating:DX:SingleSpeed = COILHTG 10 but not at the AHRI test condition due to curve out of bound.
   **   ~~~   **  Review the Standard Ratings calculations in the Engineering Reference for this coil type. Also, use Output:Diagnostics, DisplayExtraWarnings for further guidance.
   ** Warning ** The Standard Ratings is calculated for Coil:Cooling:DX:SingleSpeed = COILCOOLING 11 but not at the AHRI test condition due to curve out of bound.
   **   ~~~   **  Review the Standard Ratings calculations in the Engineering Reference for this coil type. Also, use Output:Diagnostics, DisplayExtraWarnings for further guidance.
   ** Warning ** The Standard Ratings is calculated for Coil:Heating:DX:SingleSpeed = COILHTG 11 but not at the AHRI test condition due to curve out of bound.
   **   ~~~   **  Review the Standard Ratings calculations in the Engineering Reference for this coil type. Also, use Output:Diagnostics, DisplayExtraWarnings for further guidance.
   ** Warning ** The Standard Ratings is calculated for Coil:Cooling:DX:SingleSpeed = COILCOOLING 14 but not at the AHRI test condition due to curve out of bound.
   **   ~~~   **  Review the Standard Ratings calculations in the Engineering Reference for this coil type. Also, use Output:Diagnostics, DisplayExtraWarnings for further guidance.
   ** Warning ** The Standard Ratings is calculated for Coil:Heating:DX:SingleSpeed = COILHTG 14 but not at the AHRI test condition due to curve out of bound.
   **   ~~~   **  Review the Standard Ratings calculations in the Engineering Reference for this coil type. Also, use Output:Diagnostics, DisplayExtraWarnings for further guidance.
   ** Warning ** The Standard Ratings is calculated for Coil:Cooling:DX:SingleSpeed = COILCOOLING 12 but not at the AHRI test condition due to curve out of bound.
   **   ~~~   **  Review the Standard Ratings calculations in the Engineering Reference for this coil type. Also, use Output:Diagnostics, DisplayExtraWarnings for further guidance.
   ** Warning ** The Standard Ratings is calculated for Coil:Heating:DX:SingleSpeed = COILHTG 12 but not at the AHRI test condition due to curve out of bound.
   **   ~~~   **  Review the Standard Ratings calculations in the Engineering Reference for this coil type. Also, use Output:Diagnostics, DisplayExtraWarnings for further guidance.
   ** Warning ** The Standard Ratings is calculated for Coil:Cooling:DX:SingleSpeed = COILCOOLING 13 but not at the AHRI test condition due to curve out of bound.
   **   ~~~   **  Review the Standard Ratings calculations in the Engineering Reference for this coil type. Also, use Output:Diagnostics, DisplayExtraWarnings for further guidance.
   ** Warning ** The Standard Ratings is calculated for Coil:Heating:DX:SingleSpeed = COILHTG 13 but not at the AHRI test condition due to curve out of bound.
   **   ~~~   **  Review the Standard Ratings calculations in the Engineering Reference for this coil type. Also, use Output:Diagnostics, DisplayExtraWarnings for further guidance.
   ** Warning ** The Standard Ratings is calculated for Coil:Cooling:DX:SingleSpeed = COILCOOLING 15 but not at the AHRI test condition due to curve out of bound.
   **   ~~~   **  Review the Standard Ratings calculations in the Engineering Reference for this coil type. Also, use Output:Diagnostics, DisplayExtraWarnings for further guidance.
   ** Warning ** The Standard Ratings is calculated for Coil:Heating:DX:SingleSpeed = COILHTG 15 but not at the AHRI test condition due to curve out of bound.
   **   ~~~   **  Review the Standard Ratings calculations in the Engineering Reference for this coil type. Also, use Output:Diagnostics, DisplayExtraWarnings for further guidance.
   ** Warning ** The Standard Ratings is calculated for Coil:Cooling:DX:SingleSpeed = COILCOOLING 16 but not at the AHRI test condition due to curve out of bound.
   **   ~~~   **  Review the Standard Ratings calculations in the Engineering Reference for this coil type. Also, use Output:Diagnostics, DisplayExtraWarnings for further guidance.
   ** Warning ** The Standard Ratings is calculated for Coil:Heating:DX:SingleSpeed = COILHTG 16 but not at the AHRI test condition due to curve out of bound.
   **   ~~~   **  Review the Standard Ratings calculations in the Engineering Reference for this coil type. Also, use Output:Diagnostics, DisplayExtraWarnings for further guidance.
   ** Warning ** The Standard Ratings is calculated for Coil:Cooling:DX:SingleSpeed = COILCOOLING 17 but not at the AHRI test condition due to curve out of bound.
   **   ~~~   **  Review the Standard Ratings calculations in the Engineering Reference for this coil type. Also, use Output:Diagnostics, DisplayExtraWarnings for further guidance.
   ** Warning ** The Standard Ratings is calculated for Coil:Heating:DX:SingleSpeed = COILHTG 17 but not at the AHRI test condition due to curve out of bound.
   **   ~~~   **  Review the Standard Ratings calculations in the Engineering Reference for this coil type. Also, use Output:Diagnostics, DisplayExtraWarnings for further guidance.
   ** Warning ** The Standard Ratings is calculated for Coil:Cooling:DX:SingleSpeed = COILCOOLING 18 but not at the AHRI test condition due to curve out of bound.
   **   ~~~   **  Review the Standard Ratings calculations in the Engineering Reference for this coil type. Also, use Output:Diagnostics, DisplayExtraWarnings for further guidance.
   ** Warning ** The Standard Ratings is calculated for Coil:Heating:DX:SingleSpeed = COILHTG 18 but not at the AHRI test condition due to curve out of bound.
   **   ~~~   **  Review the Standard Ratings calculations in the Engineering Reference for this coil type. Also, use Output:Diagnostics, DisplayExtraWarnings for further guidance.
   ** Warning ** The Standard Ratings is calculated for Coil:Cooling:DX:SingleSpeed = COILCOOLING 19 but not at the AHRI test condition due to curve out of bound.
   **   ~~~   **  Review the Standard Ratings calculations in the Engineering Reference for this coil type. Also, use Output:Diagnostics, DisplayExtraWarnings for further guidance.
   ** Warning ** The Standard Ratings is calculated for Coil:Heating:DX:SingleSpeed = COILHTG 19 but not at the AHRI test condition due to curve out of bound.
   **   ~~~   **  Review the Standard Ratings calculations in the Engineering Reference for this coil type. Also, use Output:Diagnostics, DisplayExtraWarnings for further guidance.
   ** Warning ** The Standard Ratings is calculated for Coil:Cooling:DX:SingleSpeed = COILCOOLING 20 but not at the AHRI test condition due to curve out of bound.
   **   ~~~   **  Review the Standard Ratings calculations in the Engineering Reference for this coil type. Also, use Output:Diagnostics, DisplayExtraWarnings for further guidance.
   ** Warning ** The Standard Ratings is calculated for Coil:Heating:DX:SingleSpeed = COILHTG 20 but not at the AHRI test condition due to curve out of bound.
   **   ~~~   **  Review the Standard Ratings calculations in the Engineering Reference for this coil type. Also, use Output:Diagnostics, DisplayExtraWarnings for further guidance.
   ** Warning ** The Standard Ratings is calculated for Coil:Cooling:DX:SingleSpeed = COILCOOLING 21 but not at the AHRI test condition due to curve out of bound.
   **   ~~~   **  Review the Standard Ratings calculations in the Engineering Reference for this coil type. Also, use Output:Diagnostics, DisplayExtraWarnings for further guidance.
   ** Warning ** The Standard Ratings is calculated for Coil:Heating:DX:SingleSpeed = COILHTG 21 but not at the AHRI test condition due to curve out of bound.
   **   ~~~   **  Review the Standard Ratings calculations in the Engineering Reference for this coil type. Also, use Output:Diagnostics, DisplayExtraWarnings for further guidance.
   ** Warning ** The Standard Ratings is calculated for Coil:Cooling:DX:SingleSpeed = COILCOOLING 22 but not at the AHRI test condition due to curve out of bound.
   **   ~~~   **  Review the Standard Ratings calculations in the Engineering Reference for this coil type. Also, use Output:Diagnostics, DisplayExtraWarnings for further guidance.
   ** Warning ** The Standard Ratings is calculated for Coil:Heating:DX:SingleSpeed = COILHTG 22 but not at the AHRI test condition due to curve out of bound.
   **   ~~~   **  Review the Standard Ratings calculations in the Engineering Reference for this coil type. Also, use Output:Diagnostics, DisplayExtraWarnings for further guidance.
   ** Warning ** In zone THERMAL ZONE: F2-4 1-BED CORE EAST there is unbalanced air flow. Load due to induced outdoor air is neglected.
   **   ~~~   **  Environment=SAN-JOSE-INTL-AP SEP CLG 0.4% CONDNS DB=>MCWB, at Simulation time=09/21 24:00 - 24:15
   **   ~~~   **   Flows [kg/s]: Inlets: 0.492684  Unbalanced exhausts: 0.617261  Returns: 0.000000
   **   ~~~   **   Infiltration: 4.311533E-002  Ventilation: 0.000000  Mixing(incoming): 0.000000
   **   ~~~   **   Imbalance (excess outflow): 8.146223E-002  This error will only be reported once per zone.
   ** Warning ** In zone THERMAL ZONE: F2-4 1-BED CORE N there is unbalanced air flow. Load due to induced outdoor air is neglected.
   **   ~~~   **  Environment=SAN-JOSE-INTL-AP SEP CLG 0.4% CONDNS DB=>MCWB, at Simulation time=09/21 24:00 - 24:15
   **   ~~~   **   Flows [kg/s]: Inlets: 0.241769  Unbalanced exhausts: 0.304058  Returns: 0.000000
   **   ~~~   **   Infiltration: 2.128387E-002  Ventilation: 0.000000  Mixing(incoming): 0.000000
   **   ~~~   **   Imbalance (excess outflow): 4.100491E-002  This error will only be reported once per zone.
   ** Warning ** In zone THERMAL ZONE: F2-4 1-BED CORE WEST there is unbalanced air flow. Load due to induced outdoor air is neglected.
   **   ~~~   **  Environment=SAN-JOSE-INTL-AP SEP CLG 0.4% CONDNS DB=>MCWB, at Simulation time=09/21 24:00 - 24:15
   **   ~~~   **   Flows [kg/s]: Inlets: 0.479131  Unbalanced exhausts: 0.603709  Returns: 0.000000
   **   ~~~   **   Infiltration: 4.311533E-002  Ventilation: 0.000000  Mixing(incoming): 0.000000
   **   ~~~   **   Imbalance (excess outflow): 8.146223E-002  This error will only be reported once per zone.
   ** Warning ** In zone THERMAL ZONE: F2-4 1-BED NORTH there is unbalanced air flow. Load due to induced outdoor air is neglected.
   **   ~~~   **  Environment=SAN-JOSE-INTL-AP SEP CLG 0.4% CONDNS DB=>MCWB, at Simulation time=09/21 24:00 - 24:15
   **   ~~~   **   Flows [kg/s]: Inlets: 1.224079  Unbalanced exhausts: 1.541650  Returns: 0.000000
   **   ~~~   **   Infiltration: 0.108328  Ventilation: 0.000000  Mixing(incoming): 0.000000
   **   ~~~   **   Imbalance (excess outflow): 0.209243  This error will only be reported once per zone.
   ** Warning ** In zone THERMAL ZONE: F2-4 2-BED CORE NE-NW there is unbalanced air flow. Load due to induced outdoor air is neglected.
   **   ~~~   **  Environment=SAN-JOSE-INTL-AP SEP CLG 0.4% CONDNS DB=>MCWB, at Simulation time=09/21 24:00 - 24:15
   **   ~~~   **   Flows [kg/s]: Inlets: 0.699934  Unbalanced exhausts: 0.886800  Returns: 0.000000
   **   ~~~   **   Infiltration: 6.159682E-002  Ventilation: 0.000000  Mixing(incoming): 0.000000
   **   ~~~   **   Imbalance (excess outflow): 0.125270  This error will only be reported once per zone.
   ** Warning ** In zone THERMAL ZONE: F2-4 2-BED EAST there is unbalanced air flow. Load due to induced outdoor air is neglected.
   **   ~~~   **  Environment=SAN-JOSE-INTL-AP SEP CLG 0.4% CONDNS DB=>MCWB, at Simulation time=09/21 24:00 - 24:15
   **   ~~~   **   Flows [kg/s]: Inlets: 1.097196  Unbalanced exhausts: 1.377495  Returns: 0.000000
   **   ~~~   **   Infiltration: 9.710483E-002  Ventilation: 0.000000  Mixing(incoming): 0.000000
   **   ~~~   **   Imbalance (excess outflow): 0.183195  This error will only be reported once per zone.
   ** Warning ** In zone THERMAL ZONE: F2-4 2-BED WEST there is unbalanced air flow. Load due to induced outdoor air is neglected.
   **   ~~~   **  Environment=SAN-JOSE-INTL-AP SEP CLG 0.4% CONDNS DB=>MCWB, at Simulation time=09/21 24:00 - 24:15
   **   ~~~   **   Flows [kg/s]: Inlets: 1.139791  Unbalanced exhausts: 1.420091  Returns: 0.000000
   **   ~~~   **   Infiltration: 9.710483E-002  Ventilation: 0.000000  Mixing(incoming): 0.000000
   **   ~~~   **   Imbalance (excess outflow): 0.183195  This error will only be reported once per zone.
   ** Warning ** In zone THERMAL ZONE: F2-4 3-BED NE there is unbalanced air flow. Load due to induced outdoor air is neglected.
   **   ~~~   **  Environment=SAN-JOSE-INTL-AP SEP CLG 0.4% CONDNS DB=>MCWB, at Simulation time=09/21 24:00 - 24:15
   **   ~~~   **   Flows [kg/s]: Inlets: 0.477674  Unbalanced exhausts: 0.600720  Returns: 0.000000
   **   ~~~   **   Infiltration: 4.340711E-002  Ventilation: 0.000000  Mixing(incoming): 0.000000
   **   ~~~   **   Imbalance (excess outflow): 7.963875E-002  This error will only be reported once per zone.
   ** Warning ** In zone THERMAL ZONE: F2-4 3-BED NW there is unbalanced air flow. Load due to induced outdoor air is neglected.
   **   ~~~   **  Environment=SAN-JOSE-INTL-AP SEP CLG 0.4% CONDNS DB=>MCWB, at Simulation time=09/21 24:00 - 24:15
   **   ~~~   **   Flows [kg/s]: Inlets: 0.494456  Unbalanced exhausts: 0.617502  Returns: 0.000000
   **   ~~~   **   Infiltration: 4.340711E-002  Ventilation: 0.000000  Mixing(incoming): 0.000000
   **   ~~~   **   Imbalance (excess outflow): 7.963875E-002  This error will only be reported once per zone.
   ** Warning ** In zone THERMAL ZONE: F2-4 STUDIO SE there is unbalanced air flow. Load due to induced outdoor air is neglected.
   **   ~~~   **  Environment=SAN-JOSE-INTL-AP SEP CLG 0.4% CONDNS DB=>MCWB, at Simulation time=09/21 24:00 - 24:15
   **   ~~~   **   Flows [kg/s]: Inlets: 0.205259  Unbalanced exhausts: 0.258358  Returns: 0.000000
   **   ~~~   **   Infiltration: 1.944213E-002  Ventilation: 0.000000  Mixing(incoming): 0.000000
   **   ~~~   **   Imbalance (excess outflow): 3.365650E-002  This error will only be reported once per zone.
   ** Warning ** In zone THERMAL ZONE: F2-4 STUDIO SW there is unbalanced air flow. Load due to induced outdoor air is neglected.
   **   ~~~   **  Environment=SAN-JOSE-INTL-AP SEP CLG 0.4% CONDNS DB=>MCWB, at Simulation time=09/21 24:00 - 24:15
   **   ~~~   **   Flows [kg/s]: Inlets: 0.200496  Unbalanced exhausts: 0.253594  Returns: 0.000000
   **   ~~~   **   Infiltration: 1.944213E-002  Ventilation: 0.000000  Mixing(incoming): 0.000000
   **   ~~~   **   Imbalance (excess outflow): 3.365650E-002  This error will only be reported once per zone.
   ** Warning ** Controller:MechanicalVentilation="BASESYS5 OACTRL MECH VENT CONTROLLER", Zone OA/person rate
   **   ~~~   ** For Zone="THERMAL ZONE: F1 CORRIDOR".
   **   ~~~   ** Zone outside air per person rate not set in Design Specification Outdoor Air Object="THERMAL ZONE: F1 CORRIDOR DESIGN SPECIFICATION OUTDOOR AIR".
   ** Warning ** Controller:MechanicalVentilation="BASESYS5 OACTRL MECH VENT CONTROLLER", Zone OA/person rate
   **   ~~~   ** For Zone="THERMAL ZONE: F1 FITNESS CENTER".
   **   ~~~   ** Zone outside air per person rate not set in Design Specification Outdoor Air Object="THERMAL ZONE: F1 FITNESS CENTER DESIGN SPECIFICATION OUTDOOR AIR".
   ** Warning ** Controller:MechanicalVentilation="BASESYS5 OACTRL MECH VENT CONTROLLER", Zone OA/person rate
   **   ~~~   ** For Zone="THERMAL ZONE: F1 LEASING OFFICE".
   **   ~~~   ** Zone outside air per person rate not set in Design Specification Outdoor Air Object="THERMAL ZONE: F1 LEASING OFFICE DESIGN SPECIFICATION OUTDOOR AIR".
   ** Warning ** Controller:MechanicalVentilation="BASESYS5 OACTRL MECH VENT CONTROLLER", Zone OA/person rate
   **   ~~~   ** For Zone="THERMAL ZONE: F1 MECHANICAL ROOM".
   **   ~~~   ** Zone outside air per person rate not set in Design Specification Outdoor Air Object="THERMAL ZONE: F1 MECHANICAL ROOM DESIGN SPECIFICATION OUTDOOR AIR".
   ** Warning ** Controller:MechanicalVentilation="BASESYS5 OACTRL MECH VENT CONTROLLER", Zone OA/person rate
   **   ~~~   ** For Zone="THERMAL ZONE: F1 RETAIL N-NW".
   **   ~~~   ** Zone outside air per person rate not set in Design Specification Outdoor Air Object="THERMAL ZONE: F1 RETAIL N-NW DESIGN SPECIFICATION OUTDOOR AIR".
   ** Warning ** Controller:MechanicalVentilation="BASESYS5 OACTRL MECH VENT CONTROLLER", Zone OA/person rate
   **   ~~~   ** For Zone="THERMAL ZONE: F1 RETAIL NE".
   **   ~~~   ** Zone outside air per person rate not set in Design Specification Outdoor Air Object="THERMAL ZONE: F1 RETAIL NE DESIGN SPECIFICATION OUTDOOR AIR".
   ** Warning ** Controller:MechanicalVentilation="BASESYS5 OACTRL MECH VENT CONTROLLER", Zone OA/person rate
   **   ~~~   ** For Zone="THERMAL ZONE: F1 RETAIL SE".
   **   ~~~   ** Zone outside air per person rate not set in Design Specification Outdoor Air Object="THERMAL ZONE: F1 RETAIL SE DESIGN SPECIFICATION OUTDOOR AIR".
   ** Warning ** Controller:MechanicalVentilation="BASESYS5 OACTRL MECH VENT CONTROLLER", Zone OA/person rate
   **   ~~~   ** For Zone="THERMAL ZONE: F1 RETAIL SW".
   **   ~~~   ** Zone outside air per person rate not set in Design Specification Outdoor Air Object="THERMAL ZONE: F1 RETAIL SW DESIGN SPECIFICATION OUTDOOR AIR".
   ** Warning ** The Standard Ratings is calculated for Coil:Cooling:DX:SingleSpeed = DOAS1 COILCLG but not at the AHRI test condition due to curve out of bound.
   **   ~~~   **  Review the Standard Ratings calculations in the Engineering Reference for this coil type. Also, use Output:Diagnostics, DisplayExtraWarnings for further guidance.
   ** Warning ** The Standard Ratings is calculated for Coil:Heating:DX:SingleSpeed = DOAS1 COILHTG but not at the AHRI test condition due to curve out of bound.
   **   ~~~   **  Review the Standard Ratings calculations in the Engineering Reference for this coil type. Also, use Output:Diagnostics, DisplayExtraWarnings for further guidance.
   ** Warning ** Missing temperature setpoint for LeavingSetpointModulated mode Boiler named BASE BLR
   **   ~~~   **   A temperature setpoint is needed at the outlet node of a boiler in variable flow mode, use a SetpointManager
   **   ~~~   **   The overall loop setpoint will be assumed for Boiler. The simulation continues ... 
   ** Warning ** Check input. Pump nominal power or motor efficiency is set to 0, for pump={47F5ADB2-683D-4EF3-B858-C74E0A98FF27}
   ** Warning ** Check input. Pump nominal power or motor efficiency is set to 0, for pump={DD2E5583-94B9-4211-BAB6-1228F10A1DED}
   ** Warning ** Output:Meter:MeterFileOnly: invalid Key Name="HUMIDIFIER:ELECTRICITY" - not found.
   ** Warning ** Output:Meter:MeterFileOnly: invalid Key Name="RECEPTACLE:EXTERIOREQUIPMENT:ELECTRICITY" - not found.
   ** Warning ** Output:Meter:MeterFileOnly: invalid Key Name="INTERIORLIGHTS:GAS" - not found.
   ** Warning ** Output:Meter:MeterFileOnly: invalid Key Name="INTERNAL TRANSPORT:INTERIOREQUIPMENT:ELECTRICITY" - not found.
   ** Warning ** Output:Meter:MeterFileOnly: invalid Key Name="EXTERIOREQUIPMENT:DISTRICTCOOLING" - not found.
   ** Warning ** Output:Meter:MeterFileOnly: invalid Key Name="EXTERIOREQUIPMENT:ELECTRICITY" - not found.
   ** Warning ** Output:Meter:MeterFileOnly: invalid Key Name="HEATRECOVERY:DISTRICTHEATING" - not found.
   ** Warning ** Output:Meter:MeterFileOnly: invalid Key Name="COGENERATION:GAS" - not found.
   ** Warning ** Output:Meter:MeterFileOnly: invalid Key Name="DISTRICTCOOLING:FACILITY" - not found.
   ** Warning ** Output:Meter:MeterFileOnly: invalid Key Name="EXTERIOREQUIPMENT:DISTRICTHEATING" - not found.
   ** Warning ** Output:Meter:MeterFileOnly: invalid Key Name="PUMPS:DISTRICTHEATING" - not found.
   ** Warning ** Output:Meter:MeterFileOnly: invalid Key Name="HEATING:DISTRICTCOOLING" - not found.
   ** Warning ** Output:Meter:MeterFileOnly: invalid Key Name="INTERIORLIGHTS:DISTRICTCOOLING" - not found.
   ** Warning ** Output:Meter:MeterFileOnly: invalid Key Name="EXTERIORLIGHTS:ELECTRICITY" - not found.
   ** Warning ** Output:Meter:MeterFileOnly: invalid Key Name="EXTERIORLIGHTS:DISTRICTCOOLING" - not found.
   ** Warning ** Output:Meter:MeterFileOnly: invalid Key Name="WATERSYSTEMS:DISTRICTHEATING" - not found.
   ** Warning ** Output:Meter:MeterFileOnly: invalid Key Name="HEATREJECTION:ELECTRICITY" - not found.
   ** Warning ** Output:Meter:MeterFileOnly: invalid Key Name="HEATRECOVERY:ELECTRICITY" - not found.
   ** Warning ** Output:Meter:MeterFileOnly: invalid Key Name="COGENERATION:ELECTRICITY" - not found.
   ** Warning ** Output:Meter:MeterFileOnly: invalid Key Name="HUMIDIFIER:GAS" - not found.
   ** Warning ** Output:Meter:MeterFileOnly: invalid Key Name="REFRIGERATION:ELECTRICITY" - not found.
   ** Warning ** Output:Meter:MeterFileOnly: invalid Key Name="FANS:DISTRICTCOOLING" - not found.
   ** Warning ** Output:Meter:MeterFileOnly: invalid Key Name="HEATING:DISTRICTHEATING" - not found.
   ** Warning ** Output:Meter:MeterFileOnly: invalid Key Name="REFRIG:EXTERIOREQUIPMENT:ELECTRICITY" - not found.
   ** Warning ** Output:Meter:MeterFileOnly: invalid Key Name="COGENERATION:DISTRICTCOOLING" - not found.
   ** Warning ** Output:Meter:MeterFileOnly: invalid Key Name="EXTERIORLIGHTS:GAS" - not found.
   ** Warning ** Output:Meter:MeterFileOnly: invalid Key Name="EXTERIOREQUIPMENT:GAS" - not found.
   ** Warning ** Output:Meter:MeterFileOnly: invalid Key Name="COOLING:DISTRICTCOOLING" - not found.
   ** Warning ** Output:Meter:MeterFileOnly: invalid Key Name="FANS:GAS" - not found.
   ** Warning ** Output:Meter:MeterFileOnly: invalid Key Name="INTERIOREQUIPMENT:DISTRICTHEATING" - not found.
   ** Warning ** Output:Meter:MeterFileOnly: invalid Key Name="DISTRICTHEATING:FACILITY" - not found.
   ** Warning ** Output:Meter:MeterFileOnly: invalid Key Name="PUMPS:GAS" - not found.
   ** Warning ** Output:Meter:MeterFileOnly: invalid Key Name="COOLING:DISTRICTHEATING" - not found.
   ** Warning ** Output:Meter:MeterFileOnly: invalid Key Name="WATERSYSTEMS:DISTRICTCOOLING" - not found.
   ** Warning ** Output:Meter:MeterFileOnly: invalid Key Name="COOLING:GAS" - not found.
   ** Warning ** Output:Meter:MeterFileOnly: invalid Key Name="HEATREJECTION:GAS" - not found.
   ** Warning ** Output:Meter:MeterFileOnly: invalid Key Name="HEATRECOVERY:GAS" - not found.
   ** Warning ** Output:Meter:MeterFileOnly: invalid Key Name="FANS:DISTRICTHEATING" - not found.
   ** Warning ** Output:Meter:MeterFileOnly: invalid Key Name="REFRIGERATION:GAS" - not found.
   ** Warning ** Output:Meter:MeterFileOnly: invalid Key Name="INTERIOREQUIPMENT:DISTRICTCOOLING" - not found.
   ** Warning ** Output:Meter:MeterFileOnly: invalid Key Name="HUMIDIFIER:DISTRICTCOOLING" - not found.
   ** Warning ** Output:Meter:MeterFileOnly: invalid Key Name="PUMPS:DISTRICTCOOLING" - not found.
   ** Warning ** Output:Meter:MeterFileOnly: invalid Key Name="HEATREJECTION:DISTRICTCOOLING" - not found.
   ** Warning ** Output:Meter:MeterFileOnly: invalid Key Name="HEATRECOVERY:DISTRICTCOOLING" - not found.
   ** Warning ** Output:Meter:MeterFileOnly: invalid Key Name="REFRIGERATION:DISTRICTCOOLING" - not found.
   ** Warning ** Output:Meter:MeterFileOnly: invalid Key Name="INTERIORLIGHTS:DISTRICTHEATING" - not found.
   ** Warning ** Output:Meter:MeterFileOnly: invalid Key Name="EXTERIORLIGHTS:DISTRICTHEATING" - not found.
   ** Warning ** Output:Meter:MeterFileOnly: invalid Key Name="HEATREJECTION:DISTRICTHEATING" - not found.
   ** Warning ** Output:Meter:MeterFileOnly: invalid Key Name="REFRIG:INTERIOREQUIPMENT:ELECTRICITY" - not found.
   ** Warning ** Output:Meter:MeterFileOnly: invalid Key Name="HUMIDIFIER:DISTRICTHEATING" - not found.
   ** Warning ** Output:Meter:MeterFileOnly: invalid Key Name="COGENERATION:DISTRICTHEATING" - not found.
   ** Warning ** Output:Meter:MeterFileOnly: invalid Key Name="REFRIGERATION:DISTRICTHEATING" - not found.
   ** Warning ** Output:Meter:MeterFileOnly: invalid Key Name="PROCESS:INTERIOREQUIPMENT:ELECTRICITY" - not found.
   ** Warning ** Output:Meter:MeterFileOnly: invalid Key Name="PROCESS:EXTERIOREQUIPMENT:ELECTRICITY" - not found.
   ** Warning ** Output:Meter:MeterFileOnly: invalid Key Name="PROCESS:INTERIOREQUIPMENT:GAS" - not found.
   ** Warning ** Output:Meter:MeterFileOnly: invalid Key Name="RECEPTACLE:EXTERIOREQUIPMENT:GAS" - not found.
   ** Warning ** Output:Meter:MeterFileOnly: invalid Key Name="PROCESS:EXTERIOREQUIPMENT:GAS" - not found.
   ** Warning ** Output:Meter:MeterFileOnly: invalid Key Name="REG LTG:EXTERIORLIGHTS:ELECTRICITY" - not found.
   ** Warning ** Output:Meter:MeterFileOnly: invalid Key Name="NONREG LTG:EXTERIORLIGHTS:ELECTRICITY" - not found.
   ************* Testing Individual Branch Integrity
   ************* All Branches passed integrity testing
   ************* Testing Individual Supply Air Path Integrity
   ************* All Supply Air Paths passed integrity testing
   ************* Testing Individual Return Air Path Integrity
   ************* All Return Air Paths passed integrity testing
   ************* No node connection errors were found.
   ************* Beginning Simulation
   ** Warning ** In zone THERMAL ZONE: F5 1-BED CORE EAST there is unbalanced exhaust air flow with no airloop serving the zone with outdoor air.
   **   ~~~   **  Environment=SAN-JOSE-INTL_724945_CZ2010, at Simulation time=01/01 00:00 - 00:15
   **   ~~~   **   Unless there is balancing infiltration / ventilation air flow, this will result in
   **   ~~~   **   load due to induced outdoor air being neglected in the simulation.
   ** Warning ** In zone THERMAL ZONE: F5 1-BED CORE N there is unbalanced exhaust air flow with no airloop serving the zone with outdoor air.
   **   ~~~   **  Environment=SAN-JOSE-INTL_724945_CZ2010, at Simulation time=01/01 00:00 - 00:15
   **   ~~~   **   Unless there is balancing infiltration / ventilation air flow, this will result in
   **   ~~~   **   load due to induced outdoor air being neglected in the simulation.
   ** Warning ** In zone THERMAL ZONE: F5 1-BED CORE WEST there is unbalanced exhaust air flow with no airloop serving the zone with outdoor air.
   **   ~~~   **  Environment=SAN-JOSE-INTL_724945_CZ2010, at Simulation time=01/01 00:00 - 00:15
   **   ~~~   **   Unless there is balancing infiltration / ventilation air flow, this will result in
   **   ~~~   **   load due to induced outdoor air being neglected in the simulation.
   ** Warning ** In zone THERMAL ZONE: F5 1-BED NORTH there is unbalanced exhaust air flow with no airloop serving the zone with outdoor air.
   **   ~~~   **  Environment=SAN-JOSE-INTL_724945_CZ2010, at Simulation time=01/01 00:00 - 00:15
   **   ~~~   **   Unless there is balancing infiltration / ventilation air flow, this will result in
   **   ~~~   **   load due to induced outdoor air being neglected in the simulation.
   ** Warning ** In zone THERMAL ZONE: F5 2-BED CORE NE-NW there is unbalanced exhaust air flow with no airloop serving the zone with outdoor air.
   **   ~~~   **  Environment=SAN-JOSE-INTL_724945_CZ2010, at Simulation time=01/01 00:00 - 00:15
   **   ~~~   **   Unless there is balancing infiltration / ventilation air flow, this will result in
   **   ~~~   **   load due to induced outdoor air being neglected in the simulation.
   ** Warning ** In zone THERMAL ZONE: F5 2-BED EAST there is unbalanced exhaust air flow with no airloop serving the zone with outdoor air.
   **   ~~~   **  Environment=SAN-JOSE-INTL_724945_CZ2010, at Simulation time=01/01 00:00 - 00:15
   **   ~~~   **   Unless there is balancing infiltration / ventilation air flow, this will result in
   **   ~~~   **   load due to induced outdoor air being neglected in the simulation.
   ** Warning ** In zone THERMAL ZONE: F5 2-BED WEST there is unbalanced exhaust air flow with no airloop serving the zone with outdoor air.
   **   ~~~   **  Environment=SAN-JOSE-INTL_724945_CZ2010, at Simulation time=01/01 00:00 - 00:15
   **   ~~~   **   Unless there is balancing infiltration / ventilation air flow, this will result in
   **   ~~~   **   load due to induced outdoor air being neglected in the simulation.
   ** Warning ** In zone THERMAL ZONE: F5 3-BED NE there is unbalanced exhaust air flow with no airloop serving the zone with outdoor air.
   **   ~~~   **  Environment=SAN-JOSE-INTL_724945_CZ2010, at Simulation time=01/01 00:00 - 00:15
   **   ~~~   **   Unless there is balancing infiltration / ventilation air flow, this will result in
   **   ~~~   **   load due to induced outdoor air being neglected in the simulation.
   ** Warning ** In zone THERMAL ZONE: F5 3-BED NW there is unbalanced exhaust air flow with no airloop serving the zone with outdoor air.
   **   ~~~   **  Environment=SAN-JOSE-INTL_724945_CZ2010, at Simulation time=01/01 00:00 - 00:15
   **   ~~~   **   Unless there is balancing infiltration / ventilation air flow, this will result in
   **   ~~~   **   load due to induced outdoor air being neglected in the simulation.
   ** Warning ** In zone THERMAL ZONE: F5 STUDIO SE there is unbalanced exhaust air flow with no airloop serving the zone with outdoor air.
   **   ~~~   **  Environment=SAN-JOSE-INTL_724945_CZ2010, at Simulation time=01/01 00:00 - 00:15
   **   ~~~   **   Unless there is balancing infiltration / ventilation air flow, this will result in
   **   ~~~   **   load due to induced outdoor air being neglected in the simulation.
   ** Warning ** In zone THERMAL ZONE: F5 STUDIO SW there is unbalanced exhaust air flow with no airloop serving the zone with outdoor air.
   **   ~~~   **  Environment=SAN-JOSE-INTL_724945_CZ2010, at Simulation time=01/01 00:00 - 00:15
   **   ~~~   **   Unless there is balancing infiltration / ventilation air flow, this will result in
   **   ~~~   **   load due to induced outdoor air being neglected in the simulation.
   ** Warning ** SimHVAC: Maximum iterations (20) exceeded for all HVAC loops, at SAN-JOSE-INTL_724945_CZ2010, 01/02 16:15 - 16:30
   **   ~~~   ** The solution for one or more of the Air Loop HVAC systems did not appear to converge
   **   ~~~   ** ...use Output:Diagnostics,DisplayExtraWarnings; to show more details on each max iteration exceeded.
   ** Warning ** SimHVAC: Maximum iterations (20) exceeded for all HVAC loops, at SAN-JOSE-INTL_724945_CZ2010, 01/02 16:30 - 16:45
   **   ~~~   ** The solution for one or more of the Air Loop HVAC systems did not appear to converge
   ** Warning ** SimHVAC: Maximum iterations (20) exceeded for all HVAC loops, at SAN-JOSE-INTL_724945_CZ2010, 01/02 16:45 - 17:00
   **   ~~~   ** The solution for one or more of the Air Loop HVAC systems did not appear to converge
   ** Warning ** SimHVAC: Maximum iterations (20) exceeded for all HVAC loops, at SAN-JOSE-INTL_724945_CZ2010, 01/03 14:15 - 14:30
   **   ~~~   ** The solution for one or more of the Air Loop HVAC systems did not appear to converge
   ** Warning ** SimHVAC: Maximum iterations (20) exceeded for all HVAC loops, at SAN-JOSE-INTL_724945_CZ2010, 01/03 14:15 - 14:23
   **   ~~~   ** The solution for one or more of the Air Loop HVAC systems did not appear to converge
   ** Warning ** SimHVAC: Maximum iterations (20) exceeded for all HVAC loops, at SAN-JOSE-INTL_724945_CZ2010, 01/03 14:23 - 14:30
   **   ~~~   ** The solution for one or more of the Air Loop HVAC systems did not appear to converge
   ** Warning ** SimHVAC: Maximum iterations (20) exceeded for all HVAC loops, at SAN-JOSE-INTL_724945_CZ2010, 01/03 14:30 - 14:45
   **   ~~~   ** The solution for one or more of the Air Loop HVAC systems did not appear to converge
   ** Warning ** SimHVAC: Maximum iterations (20) exceeded for all HVAC loops, at SAN-JOSE-INTL_724945_CZ2010, 01/03 14:30 - 14:38
   **   ~~~   ** The solution for one or more of the Air Loop HVAC systems did not appear to converge
   ** Warning ** SimHVAC: Maximum iterations (20) exceeded for all HVAC loops, at SAN-JOSE-INTL_724945_CZ2010, 01/03 14:38 - 14:45
   **   ~~~   ** The solution for one or more of the Air Loop HVAC systems did not appear to converge
   ** Warning ** SimHVAC: Maximum iterations (20) exceeded for all HVAC loops, at SAN-JOSE-INTL_724945_CZ2010, 01/03 14:45 - 15:00
   **   ~~~   ** The solution for one or more of the Air Loop HVAC systems did not appear to converge
   ** Warning ** SimHVAC: Maximum iterations (20) exceeded for all HVAC loops, at SAN-JOSE-INTL_724945_CZ2010, 01/03 14:45 - 14:53
   **   ~~~   ** The solution for one or more of the Air Loop HVAC systems did not appear to converge
   ** Warning ** SimHVAC: Maximum iterations (20) exceeded for all HVAC loops, at SAN-JOSE-INTL_724945_CZ2010, 01/03 14:53 - 15:00
   **   ~~~   ** The solution for one or more of the Air Loop HVAC systems did not appear to converge
   ** Warning ** SimHVAC: Maximum iterations (20) exceeded for all HVAC loops, at SAN-JOSE-INTL_724945_CZ2010, 01/03 15:00 - 15:15
   **   ~~~   ** The solution for one or more of the Air Loop HVAC systems did not appear to converge
   ** Warning ** SimHVAC: Maximum iterations (20) exceeded for all HVAC loops, at SAN-JOSE-INTL_724945_CZ2010, 01/03 15:00 - 15:08
   **   ~~~   ** The solution for one or more of the Air Loop HVAC systems did not appear to converge
   ** Warning ** CalcDoe2DXCoil: Coil:Cooling:DX:SingleSpeed "DOAS1 COILCLG" - Full load outlet air dry-bulb temperature < 2C. This indicates the possibility of coil frost/freeze. Outlet temperature = 1.74 C.
   **   ~~~   **  ...Occurrence info = SAN-JOSE-INTL_724945_CZ2010, 01/08 10:45 - 10:53
   **   ~~~   ** ... Possible reasons for low outlet air dry-bulb temperatures are: This DX coil
   **   ~~~   **    1) may have a low inlet air dry-bulb temperature. Inlet air temperature = 17.000 C.
   **   ~~~   **    2) may have a low air flow rate per watt of cooling capacity. Check inputs.
   **   ~~~   **    3) is used as part of a HX assisted cooling coil which uses a high sensible effectiveness. Check inputs.
   ************* Simulation Error Summary *************
   ************* There are 1 unused objects in input.
   ************* Use Output:Diagnostics,DisplayUnusedObjects; to see them.
   ************* There are 11 unused schedules in input.
   ************* There are 11 unused week schedules in input.
   ************* There are 21 unused day schedules in input.
   ************* Use Output:Diagnostics,DisplayUnusedSchedules; to see them.
   *************
   ************* ===== Recurring Error Summary =====
   ************* The following recurring error messages occurred.
   *************
   *************  ** Warning ** SimHVAC: Exceeding Maximum iterations for all HVAC loops, during SAN-JOSE-INTL_724945_CZ2010 continues
   *************  **   ~~~   **   This error occurred 1098 total times;
   *************  **   ~~~   **   during Warmup 0 times;
   *************  **   ~~~   **   during Sizing 0 times.
   *************
   *************  ** Warning ** CalcDoe2DXCoil: Coil:Cooling:DX:SingleSpeed="DOAS1 COILCLG" - Full load outlet temperature indicates a possibility of frost/freeze error continues. Outlet air temperature statistics follow:
   *************  **   ~~~   **   This error occurred 712 total times;
   *************  **   ~~~   **   during Warmup 0 times;
   *************  **   ~~~   **   during Sizing 0 times.
   *************  **   ~~~   **   Max=1.999876  Min=-1.589715
   *************
   ************* EnergyPlus Warmup Error Summary. During Warmup: 0 Warning; 0 Severe Errors.
   ************* EnergyPlus Sizing Error Summary. During Sizing: 112 Warning; 0 Severe Errors.
   ************* EnergyPlus Completed Successfully-- 2074 Warning; 0 Severe Errors; Elapsed Time=00hr 02min 48.70sec
