Program Version,EnergyPlus, Version 9.0.1-bb7ca4f0da, YMD=2019.12.18 09:56
! This file shows details about the branches, nodes, and other
! elements of the flow connections.
! This file is intended for use in "debugging" potential problems
! that may also be detected by the program, but may be more easily
! identified by "eye".
! This file is also intended to support software which draws a
! schematic diagram of the HVAC system.
! ===============================================================
! #Nodes,<Number of Unique Nodes>
 #Nodes,446
! <Node>,<NodeNumber>,<Node Name>,<Node Fluid Type>,<# Times Node Referenced After Definition>
 Node,1,BASEVAV TRMLUNIT OUTLET NODE,Air,4
 Node,2,THERMAL ZONE: F1 BUSINESS CENTER RETURN AIR NODE,Air,2
 Node,3,BASEVAV TRMLUNIT-2 OUTLET NODE,Air,4
 Node,4,THERMAL ZONE: F1 CORRIDOR RETURN AIR NODE,Air,2
 Node,5,BASEVAV TRMLUNIT-4 OUTLET NODE,Air,4
 Node,6,THERMAL ZONE: F1 FITNESS CENTER RETURN AIR NODE,Air,2
 Node,7,BASEVAV TRMLUNIT-5 OUTLET NODE,Air,4
 Node,8,THERMAL ZONE: F1 LEASING OFFICE RETURN AIR NODE,Air,2
 Node,9,BASEVAV TRMLUNIT-3 OUTLET NODE,Air,4
 Node,10,THERMAL ZONE: F1 LOUNGE RETURN AIR NODE,Air,2
 Node,11,BASEVAV TRMLUNIT-6 OUTLET NODE,Air,4
 Node,12,THERMAL ZONE: F1 MECHANICAL ROOM RETURN AIR NODE,Air,2
 Node,13,BASEVAV TRMLUNIT-7 OUTLET NODE,Air,4
 Node,14,THERMAL ZONE: F1 RETAIL N-NW RETURN AIR NODE,Air,2
 Node,15,BASEVAV TRMLUNIT-8 OUTLET NODE,Air,4
 Node,16,THERMAL ZONE: F1 RETAIL NE RETURN AIR NODE,Air,2
 Node,17,BASEVAV TRMLUNIT-9 OUTLET NODE,Air,4
 Node,18,THERMAL ZONE: F1 RETAIL SE RETURN AIR NODE,Air,2
 Node,19,BASEVAV TRMLUNIT-10 OUTLET NODE,Air,4
 Node,20,THERMAL ZONE: F1 RETAIL SW RETURN AIR NODE,Air,2
 Node,21,ZNSYS F2-4 1-BED CORE EAST OUTLET NODE,Air,3
 Node,22,PROPNOCLG ZNSYS-3 OUTLET NODE,Air,3
 Node,23,THERMAL ZONE: F2-4 1-BED CORE EAST PROPEXHFAN INLET NODE,Air,2
 Node,24,ZNSYS F2-4 1-BED CORE EAST INLET NODE,Air,3
 Node,25,PROPNOCLG ZNSYS-3 INLET NODE,Air,3
 Node,26,ZNSYS F2-4 1-BED CORE N OUTLET NODE,Air,3
 Node,27,PROPNOCLG ZNSYS OUTLET NODE,Air,3
 Node,28,THERMAL ZONE: F2-4 1-BED CORE N PROPEXHFAN INLET NODE,Air,2
 Node,29,ZNSYS F2-4 1-BED CORE N INLET NODE,Air,3
 Node,30,PROPNOCLG ZNSYS INLET NODE,Air,3
 Node,31,ZNSYS F2-4 1-BED CORE WEST OUTLET NODE,Air,3
 Node,32,PROPNOCLG ZNSYS-2 OUTLET NODE,Air,3
 Node,33,THERMAL ZONE: F2-4 1-BED CORE WEST PROPEXHFAN INLET NODE,Air,2
 Node,34,ZNSYS F2-4 1-BED CORE WEST INLET NODE,Air,3
 Node,35,PROPNOCLG ZNSYS-2 INLET NODE,Air,3
 Node,36,ZNSYS F2-4 1-BED NORTH OUTLET NODE,Air,3
 Node,37,PROPNOCLG ZNSYS-4 OUTLET NODE,Air,3
 Node,38,THERMAL ZONE: F2-4 1-BED NORTH PROPEXHFAN INLET NODE,Air,2
 Node,39,ZNSYS F2-4 1-BED NORTH INLET NODE,Air,3
 Node,40,PROPNOCLG ZNSYS-4 INLET NODE,Air,3
 Node,41,ZNSYS F2-4 2-BED CORE NE-NW OUTLET NODE,Air,3
 Node,42,PROPNOCLG ZNSYS-5 OUTLET NODE,Air,3
 Node,43,THERMAL ZONE: F2-4 2-BED CORE NE-NW PROPEXHFAN INLET NODE,Air,2
 Node,44,ZNSYS F2-4 2-BED CORE NE-NW INLET NODE,Air,3
 Node,45,PROPNOCLG ZNSYS-5 INLET NODE,Air,3
 Node,46,ZNSYS F2-4 2-BED EAST OUTLET NODE,Air,3
 Node,47,PROPNOCLG ZNSYS-6 OUTLET NODE,Air,3
 Node,48,THERMAL ZONE: F2-4 2-BED EAST PROPEXHFAN INLET NODE,Air,2
 Node,49,ZNSYS F2-4 2-BED EAST INLET NODE,Air,3
 Node,50,PROPNOCLG ZNSYS-6 INLET NODE,Air,3
 Node,51,ZNSYS F2-4 2-BED WEST OUTLET NODE,Air,3
 Node,52,PROPNOCLG ZNSYS-7 OUTLET NODE,Air,3
 Node,53,THERMAL ZONE: F2-4 2-BED WEST PROPEXHFAN INLET NODE,Air,2
 Node,54,ZNSYS F2-4 2-BED WEST INLET NODE,Air,3
 Node,55,PROPNOCLG ZNSYS-7 INLET NODE,Air,3
 Node,56,ZNSYS F2-4 3-BED NE OUTLET NODE,Air,3
 Node,57,PROPNOCLG ZNSYS-8 OUTLET NODE,Air,3
 Node,58,THERMAL ZONE: F2-4 3-BED NE PROPEXHFAN INLET NODE,Air,2
 Node,59,ZNSYS F2-4 3-BED NE INLET NODE,Air,3
 Node,60,PROPNOCLG ZNSYS-8 INLET NODE,Air,3
 Node,61,ZNSYS F2-4 3-BED NW OUTLET NODE,Air,3
 Node,62,PROPNOCLG ZNSYS-9 OUTLET NODE,Air,3
 Node,63,THERMAL ZONE: F2-4 3-BED NW PROPEXHFAN INLET NODE,Air,2
 Node,64,ZNSYS F2-4 3-BED NW INLET NODE,Air,3
 Node,65,PROPNOCLG ZNSYS-9 INLET NODE,Air,3
 Node,66,DOAS1 TRMLUNIT-1 OUTLET NODE,Air,3
 Node,67,PROPNOCLG ZNSYS-12 OUTLET NODE,Air,3
 Node,68,PROPNOCLG ZNSYS-12 INLET NODE,Air,3
 Node,69,THERMAL ZONE: F2-4 CORRIDOR RETURN AIR NODE,Air,2
 Node,70,ZNSYS F2-4 STUDIO SE OUTLET NODE,Air,3
 Node,71,PROPNOCLG ZNSYS-10 OUTLET NODE,Air,3
 Node,72,THERMAL ZONE: F2-4 STUDIO SE PROPEXHFAN INLET NODE,Air,2
 Node,73,ZNSYS F2-4 STUDIO SE INLET NODE,Air,3
 Node,74,PROPNOCLG ZNSYS-10 INLET NODE,Air,3
 Node,75,ZNSYS F2-4 STUDIO SW OUTLET NODE,Air,3
 Node,76,PROPNOCLG ZNSYS-11 OUTLET NODE,Air,3
 Node,77,THERMAL ZONE: F2-4 STUDIO SW PROPEXHFAN INLET NODE,Air,2
 Node,78,ZNSYS F2-4 STUDIO SW INLET NODE,Air,3
 Node,79,PROPNOCLG ZNSYS-11 INLET NODE,Air,3
 Node,80,ZNSYS F5 1-BED CORE EAST OUTLET NODE,Air,3
 Node,81,PROPNOCLG ZNSYS-15 OUTLET NODE,Air,3
 Node,82,THERMAL ZONE: F5 1-BED CORE EAST PROPEXHFAN INLET NODE,Air,2
 Node,83,ZNSYS F5 1-BED CORE EAST INLET NODE,Air,3
 Node,84,PROPNOCLG ZNSYS-15 INLET NODE,Air,3
 Node,85,ZNSYS F5 1-BED CORE N OUTLET NODE,Air,3
 Node,86,PROPNOCLG ZNSYS-13 OUTLET NODE,Air,3
 Node,87,THERMAL ZONE: F5 1-BED CORE N PROPEXHFAN INLET NODE,Air,2
 Node,88,ZNSYS F5 1-BED CORE N INLET NODE,Air,3
 Node,89,PROPNOCLG ZNSYS-13 INLET NODE,Air,3
 Node,90,ZNSYS F5 1-BED CORE WEST OUTLET NODE,Air,3
 Node,91,PROPNOCLG ZNSYS-14 OUTLET NODE,Air,3
 Node,92,THERMAL ZONE: F5 1-BED CORE WEST PROPEXHFAN INLET NODE,Air,2
 Node,93,ZNSYS F5 1-BED CORE WEST INLET NODE,Air,3
 Node,94,PROPNOCLG ZNSYS-14 INLET NODE,Air,3
 Node,95,ZNSYS F5 1-BED NORTH OUTLET NODE,Air,3
 Node,96,PROPNOCLG ZNSYS-16 OUTLET NODE,Air,3
 Node,97,THERMAL ZONE: F5 1-BED NORTH PROPEXHFAN INLET NODE,Air,2
 Node,98,ZNSYS F5 1-BED NORTH INLET NODE,Air,3
 Node,99,PROPNOCLG ZNSYS-16 INLET NODE,Air,3
 Node,100,ZNSYS F5 2-BED CORE NE-NW OUTLET NODE,Air,3
 Node,101,PROPNOCLG ZNSYS-17 OUTLET NODE,Air,3
 Node,102,THERMAL ZONE: F5 2-BED CORE NE-NW PROPEXHFAN INLET NODE,Air,2
 Node,103,ZNSYS F5 2-BED CORE NE-NW INLET NODE,Air,3
 Node,104,PROPNOCLG ZNSYS-17 INLET NODE,Air,3
 Node,105,ZNSYS F5 2-BED EAST OUTLET NODE,Air,3
 Node,106,PROPNOCLG ZNSYS-18 OUTLET NODE,Air,3
 Node,107,THERMAL ZONE: F5 2-BED EAST PROPEXHFAN INLET NODE,Air,2
 Node,108,ZNSYS F5 2-BED EAST INLET NODE,Air,3
 Node,109,PROPNOCLG ZNSYS-18 INLET NODE,Air,3
 Node,110,ZNSYS F5 2-BED WEST OUTLET NODE,Air,3
 Node,111,PROPNOCLG ZNSYS-19 OUTLET NODE,Air,3
 Node,112,THERMAL ZONE: F5 2-BED WEST PROPEXHFAN INLET NODE,Air,2
 Node,113,ZNSYS F5 2-BED WEST INLET NODE,Air,3
 Node,114,PROPNOCLG ZNSYS-19 INLET NODE,Air,3
 Node,115,ZNSYS F5 3-BED NE OUTLET NODE,Air,3
 Node,116,PROPNOCLG ZNSYS-20 OUTLET NODE,Air,3
 Node,117,THERMAL ZONE: F5 3-BED NE PROPEXHFAN INLET NODE,Air,2
 Node,118,ZNSYS F5 3-BED NE INLET NODE,Air,3
 Node,119,PROPNOCLG ZNSYS-20 INLET NODE,Air,3
 Node,120,ZNSYS F5 3-BED NW OUTLET NODE,Air,3
 Node,121,PROPNOCLG ZNSYS-21 OUTLET NODE,Air,3
 Node,122,THERMAL ZONE: F5 3-BED NW PROPEXHFAN INLET NODE,Air,2
 Node,123,ZNSYS F5 3-BED NW INLET NODE,Air,3
 Node,124,PROPNOCLG ZNSYS-21 INLET NODE,Air,3
 Node,125,DOAS1 TRMLUNIT-3 OUTLET NODE,Air,3
 Node,126,PROPNOCLG ZNSYS-24 OUTLET NODE,Air,3
 Node,127,PROPNOCLG ZNSYS-24 INLET NODE,Air,3
 Node,128,THERMAL ZONE: F5 CORRIDOR RETURN AIR NODE,Air,2
 Node,129,ZNSYS F5 STUDIO SE OUTLET NODE,Air,3
 Node,130,PROPNOCLG ZNSYS-22 OUTLET NODE,Air,3
 Node,131,THERMAL ZONE: F5 STUDIO SE PROPEXHFAN INLET NODE,Air,2
 Node,132,ZNSYS F5 STUDIO SE INLET NODE,Air,3
 Node,133,PROPNOCLG ZNSYS-22 INLET NODE,Air,3
 Node,134,ZNSYS F5 STUDIO SW OUTLET NODE,Air,3
 Node,135,PROPNOCLG ZNSYS-23 OUTLET NODE,Air,3
 Node,136,THERMAL ZONE: F5 STUDIO SW PROPEXHFAN INLET NODE,Air,2
 Node,137,ZNSYS F5 STUDIO SW INLET NODE,Air,3
 Node,138,PROPNOCLG ZNSYS-23 INLET NODE,Air,3
 Node,139,THERMAL ZONE: PARKING GARAGE PROPEXHFAN INLET NODE,Air,2
 Node,140,BASESYS5 FAN OUTLET NODE,Air,10
 Node,141,BASESYS5 F1 DEMAND SIDE (SUPPLY AIR) INLET NODE,Air,3
 Node,142,DOAS1 FAN OUTLET NODE,Air,12
 Node,143,DOAS1 DEMAND SIDE (SUPPLY AIR) INLET NODE,Air,3
 Node,144,BASESYS5 F1 SUPPLY SIDE (RETURN AIR) INLET NODE,Air,3
 Node,145,BASESYS5 OACTRL OA SYSTEM MIXED AIR NODE,Air,6
 Node,146,BASESYS5 COILCLG OUTLET NODE,Air,6
 Node,147,BASESYS5 COILHTG AIR OUTLET NODE,Air,8
 Node,148,DOAS1 SUPPLY SIDE (RETURN AIR) INLET NODE,Air,3
 Node,149,DOAS1 OACTRL OA SYSTEM MIXED AIR NODE,Air,6
 Node,150,DOAS1 COILCLG OUTLET NODE,Air,6
 Node,151,DOAS1 COILHTG OUTLET NODE,Air,4
 Node,152,DOAS1 SUPPCOILHTG OUTLET NODE,Air,9
 Node,153,BASEHWSYSTEM SUPPLY INLET NODE,Water,2
 Node,154,BASEHWSYSTEM SUPPLY INLET PIPE NODE,Water,1
 Node,155,BASEHWSYSTEM SUPPLY SPLITTER OUTLET NODE 1,Water,1
 Node,156,BASE HW PUMP OUTLET NODE,Water,3
 Node,157,BASE BLR OUTLET NODE,Water,1
 Node,158,BASEHWSYSTEM SUPPLY OUTLET PIPE NODE,Water,1
 Node,159,BASEHWSYSTEM SUPPLY MIXER OUTLET NODE,Water,4
 Node,160,BASEHWSYSTEM DEMAND INLET NODE,Water,2
 Node,161,BASEHWSYSTEM DEMAND INLET PIPE NODE,Water,1
 Node,162,BASEHWSYSTEM DEMAND SPLITTER OUTLET NODE 1,Water,2
 Node,163,BASESYS5 COILHTG WATER OUTLET NODE,Water,1
 Node,164,BASEHWSYSTEM DEMAND SPLITTER OUTLET NODE 2,Water,1
 Node,165,BASEVAVBOX COILHTG WATER OUTLET NODE,Water,1
 Node,166,BASEHWSYSTEM DEMAND SPLITTER OUTLET NODE 3,Water,1
 Node,167,BASEVAVBOX COILHTG-2 WATER OUTLET NODE,Water,1
 Node,168,BASEHWSYSTEM DEMAND SPLITTER OUTLET NODE 4,Water,1
 Node,169,BASEVAVBOX COILHTG-3 WATER OUTLET NODE,Water,1
 Node,170,BASEHWSYSTEM DEMAND SPLITTER OUTLET NODE 5,Water,1
 Node,171,BASEVAVBOX COILHTG-4 WATER OUTLET NODE,Water,1
 Node,172,BASEHWSYSTEM DEMAND SPLITTER OUTLET NODE 6,Water,1
 Node,173,BASEVAVBOX COILHTG-5 WATER OUTLET NODE,Water,1
 Node,174,BASEHWSYSTEM DEMAND SPLITTER OUTLET NODE 7,Water,1
 Node,175,BASEVAVBOX COILHTG-6 WATER OUTLET NODE,Water,1
 Node,176,BASEHWSYSTEM DEMAND SPLITTER OUTLET NODE 8,Water,1
 Node,177,BASEVAVBOX COILHTG-7 WATER OUTLET NODE,Water,1
 Node,178,BASEHWSYSTEM DEMAND SPLITTER OUTLET NODE 9,Water,1
 Node,179,BASEVAVBOX COILHTG-8 WATER OUTLET NODE,Water,1
 Node,180,BASEHWSYSTEM DEMAND SPLITTER OUTLET NODE 10,Water,1
 Node,181,BASEVAVBOX COILHTG-9 WATER OUTLET NODE,Water,1
 Node,182,BASEHWSYSTEM DEMAND SPLITTER OUTLET NODE 11,Water,1
 Node,183,BASEVAVBOX COILHTG-10 WATER OUTLET NODE,Water,1
 Node,184,BASEHWSYSTEM DEMAND BYPASS PIPE INLET NODE,Water,1
 Node,185,BASEHWSYSTEM DEMAND BYPASS PIPE OUTLET NODE,Water,1
 Node,186,BASEHWSYSTEM DEMAND OUTLET PIPE NODE,Water,1
 Node,187,BASEHWSYSTEM DEMAND MIXER OUTLET NODE,Water,2
 Node,188,NONRESIDENTIAL ELEC DHW SYSTEM SUPPLY INLET NODE,Water,2
 Node,189,{67E54F3E-2BCE-4E32-B457-3509CE0633C3} OUTLET NODE,Water,1
 Node,190,NONRESIDENTIAL ELEC DHW SYSTEM SUPPLY SPLITTER OUTLET NODE 1,Water,1
 Node,191,NONRES ELEC WATER HEATER SUPPLY OUTLET NODE,Water,1
 Node,192,NONRESIDENTIAL ELEC DHW SYSTEM SUPPLY OUTLET PIPE NODE,Water,1
 Node,193,NONRESIDENTIAL ELEC DHW SYSTEM SUPPLY MIXER OUTLET NODE,Water,4
 Node,194,NONRESIDENTIAL ELEC DHW SYSTEM DEMAND INLET NODE,Water,2
 Node,195,NONRESIDENTIAL ELEC DHW SYSTEM DEMAND INLET PIPE NODE,Water,1
 Node,196,NONRESIDENTIAL ELEC DHW SYSTEM DEMAND SPLITTER OUTLET NODE 1,Water,1
 Node,197,F1 BUSINESS CENTER WATER USE CONNECTION OUTLET NODE,Water,1
 Node,198,NONRESIDENTIAL ELEC DHW SYSTEM DEMAND SPLITTER OUTLET NODE 2,Water,1
 Node,199,F1 ELEVATOR CORE WATER USE CONNECTION OUTLET NODE,Water,1
 Node,200,NONRESIDENTIAL ELEC DHW SYSTEM DEMAND SPLITTER OUTLET NODE 3,Water,1
 Node,201,F1 ELEVATOR N WATER USE CONNECTION OUTLET NODE,Water,1
 Node,202,NONRESIDENTIAL ELEC DHW SYSTEM DEMAND SPLITTER OUTLET NODE 4,Water,1
 Node,203,F1 ELEVATOR S WATER USE CONNECTION OUTLET NODE,Water,1
 Node,204,NONRESIDENTIAL ELEC DHW SYSTEM DEMAND SPLITTER OUTLET NODE 5,Water,1
 Node,205,F1 LEASING OFFICE WATER USE CONNECTION OUTLET NODE,Water,1
 Node,206,NONRESIDENTIAL ELEC DHW SYSTEM DEMAND SPLITTER OUTLET NODE 6,Water,1
 Node,207,F1 MECHANICAL ROOM WATER USE CONNECTION OUTLET NODE,Water,1
 Node,208,NONRESIDENTIAL ELEC DHW SYSTEM DEMAND SPLITTER OUTLET NODE 7,Water,1
 Node,209,F1 RETAIL N CORE WATER USE CONNECTION OUTLET NODE,Water,1
 Node,210,NONRESIDENTIAL ELEC DHW SYSTEM DEMAND SPLITTER OUTLET NODE 8,Water,1
 Node,211,F1 RETAIL NE CORE WATER USE CONNECTION OUTLET NODE,Water,1
 Node,212,NONRESIDENTIAL ELEC DHW SYSTEM DEMAND SPLITTER OUTLET NODE 9,Water,1
 Node,213,F1 RETAIL NE INNER WATER USE CONNECTION OUTLET NODE,Water,1
 Node,214,NONRESIDENTIAL ELEC DHW SYSTEM DEMAND SPLITTER OUTLET NODE 10,Water,1
 Node,215,F1 RETAIL NE OUTER WATER USE CONNECTION OUTLET NODE,Water,1
 Node,216,NONRESIDENTIAL ELEC DHW SYSTEM DEMAND SPLITTER OUTLET NODE 11,Water,1
 Node,217,F1 RETAIL NW INNER CORE WATER USE CONNECTION OUTLET NODE,Water,1
 Node,218,NONRESIDENTIAL ELEC DHW SYSTEM DEMAND SPLITTER OUTLET NODE 12,Water,1
 Node,219,F1 RETAIL NW OUTER WATER USE CONNECTION OUTLET NODE,Water,1
 Node,220,NONRESIDENTIAL ELEC DHW SYSTEM DEMAND SPLITTER OUTLET NODE 13,Water,1
 Node,221,F1 RETAIL NW OUTER CORE WATER USE CONNECTION OUTLET NODE,Water,1
 Node,222,NONRESIDENTIAL ELEC DHW SYSTEM DEMAND SPLITTER OUTLET NODE 14,Water,1
 Node,223,F1 RETAIL SE BOTTOM WATER USE CONNECTION OUTLET NODE,Water,1
 Node,224,NONRESIDENTIAL ELEC DHW SYSTEM DEMAND SPLITTER OUTLET NODE 15,Water,1
 Node,225,F1 RETAIL SE TOP WATER USE CONNECTION OUTLET NODE,Water,1
 Node,226,NONRESIDENTIAL ELEC DHW SYSTEM DEMAND SPLITTER OUTLET NODE 16,Water,1
 Node,227,F1 RETAIL SW BOTTOM WATER USE CONNECTION OUTLET NODE,Water,1
 Node,228,NONRESIDENTIAL ELEC DHW SYSTEM DEMAND SPLITTER OUTLET NODE 17,Water,1
 Node,229,F1 RETAIL SW CORE WATER USE CONNECTION OUTLET NODE,Water,1
 Node,230,NONRESIDENTIAL ELEC DHW SYSTEM DEMAND SPLITTER OUTLET NODE 18,Water,1
 Node,231,F1 RETAIL SW TOP WATER USE CONNECTION OUTLET NODE,Water,1
 Node,232,NONRESIDENTIAL ELEC DHW SYSTEM DEMAND SPLITTER OUTLET NODE 19,Water,1
 Node,233,F2-4 ELEVATOR CORE WATER USE CONNECTION OUTLET NODE,Water,1
 Node,234,NONRESIDENTIAL ELEC DHW SYSTEM DEMAND SPLITTER OUTLET NODE 20,Water,1
 Node,235,F2-4 ELEVATOR N WATER USE CONNECTION OUTLET NODE,Water,1
 Node,236,NONRESIDENTIAL ELEC DHW SYSTEM DEMAND SPLITTER OUTLET NODE 21,Water,1
 Node,237,F2-4 ELEVATOR S WATER USE CONNECTION OUTLET NODE,Water,1
 Node,238,NONRESIDENTIAL ELEC DHW SYSTEM DEMAND SPLITTER OUTLET NODE 22,Water,1
 Node,239,F5 ELEVATOR CORE WATER USE CONNECTION OUTLET NODE,Water,1
 Node,240,NONRESIDENTIAL ELEC DHW SYSTEM DEMAND SPLITTER OUTLET NODE 23,Water,1
 Node,241,F5 ELEVATOR N WATER USE CONNECTION OUTLET NODE,Water,1
 Node,242,NONRESIDENTIAL ELEC DHW SYSTEM DEMAND SPLITTER OUTLET NODE 24,Water,1
 Node,243,F5 ELEVATOR S WATER USE CONNECTION OUTLET NODE,Water,1
 Node,244,NONRESIDENTIAL ELEC DHW SYSTEM DEMAND BYPASS PIPE INLET NODE,Water,1
 Node,245,NONRESIDENTIAL ELEC DHW SYSTEM DEMAND BYPASS PIPE OUTLET NODE,Water,1
 Node,246,NONRESIDENTIAL ELEC DHW SYSTEM DEMAND OUTLET PIPE NODE,Water,1
 Node,247,NONRESIDENTIAL ELEC DHW SYSTEM DEMAND MIXER OUTLET NODE,Water,2
 Node,248,NONRESIDENTIAL GAS DHW SYSTEM SUPPLY INLET NODE,Water,2
 Node,249,{06E23BF8-5339-4241-8527-42ED8EA44698} OUTLET NODE,Water,1
 Node,250,NONRESIDENTIAL GAS DHW SYSTEM SUPPLY SPLITTER OUTLET NODE 1,Water,1
 Node,251,NONRES GAS WATER HEATER SUPPLY OUTLET NODE,Water,1
 Node,252,NONRESIDENTIAL GAS DHW SYSTEM SUPPLY OUTLET PIPE NODE,Water,1
 Node,253,NONRESIDENTIAL GAS DHW SYSTEM SUPPLY MIXER OUTLET NODE,Water,4
 Node,254,NONRESIDENTIAL GAS DHW SYSTEM DEMAND INLET NODE,Water,2
 Node,255,NONRESIDENTIAL GAS DHW SYSTEM DEMAND INLET PIPE NODE,Water,1
 Node,256,NONRESIDENTIAL GAS DHW SYSTEM DEMAND SPLITTER OUTLET NODE 1,Water,1
 Node,257,F1 LOUNGE WATER USE CONNECTION OUTLET NODE,Water,1
 Node,258,NONRESIDENTIAL GAS DHW SYSTEM DEMAND SPLITTER OUTLET NODE 2,Water,1
 Node,259,F1 FITNESS CENTER WATER USE CONNECTION OUTLET NODE,Water,1
 Node,260,NONRESIDENTIAL GAS DHW SYSTEM DEMAND SPLITTER OUTLET NODE 3,Water,1
 Node,261,F2-4 LAUNDRY WATER USE CONNECTION OUTLET NODE,Water,1
 Node,262,NONRESIDENTIAL GAS DHW SYSTEM DEMAND SPLITTER OUTLET NODE 4,Water,1
 Node,263,F5 LAUNDRY WATER USE CONNECTION OUTLET NODE,Water,1
 Node,264,NONRESIDENTIAL GAS DHW SYSTEM DEMAND BYPASS PIPE INLET NODE,Water,1
 Node,265,NONRESIDENTIAL GAS DHW SYSTEM DEMAND BYPASS PIPE OUTLET NODE,Water,1
 Node,266,NONRESIDENTIAL GAS DHW SYSTEM DEMAND OUTLET PIPE NODE,Water,1
 Node,267,NONRESIDENTIAL GAS DHW SYSTEM DEMAND MIXER OUTLET NODE,Water,2
 Node,268,{760B0665-E409-4C59-87BB-BD4286A5E16B},Air,0
 Node,269,{36160DD9-5DB2-47EB-A0D5-8FE89D794B62},Air,0
 Node,270,{AD541A7B-4D3B-4838-9A9D-CB0F32F4A656},Air,0
 Node,271,{C7582ED3-AB63-405B-8426-F1579CC61C27},Air,0
 Node,272,{23716709-5E4C-4FD8-8FCD-1C04CCE17864},Air,0
 Node,273,{F2ABE0E6-7A6A-45D7-B7B7-FCA2FF1CB82D},Air,0
 Node,274,{A4002DDD-53F6-4DFF-B645-C107B864E357},Air,0
 Node,275,{C57EF7AF-DEEA-458F-8280-3ED64EAED4AB},Air,0
 Node,276,{647C8440-0528-472C-B8C0-7B071BFD6164},Air,0
 Node,277,{1CD3C0B2-49C6-4EE1-AE9A-2773BF185481},Air,0
 Node,278,{9BA2882D-79A8-4853-B813-4EB2D4537639},Air,0
 Node,279,{4E253507-E181-4ECE-85ED-AC89051E7873},Air,0
 Node,280,{17138FAA-CE48-46EC-81A8-B81FABED5130},Air,0
 Node,281,{9DDD66A2-B91B-447E-B934-3F0F24F910AF},Air,0
 Node,282,{AABDF1F3-6942-4A84-B9AA-CC1E66AB35C4},Air,0
 Node,283,{5A292788-4D5A-4586-A491-3E3334672D04},Air,0
 Node,284,{265F34B9-CAAF-4C01-8F40-06CC9BC05A4C},Air,0
 Node,285,{A931DBBC-C3DA-4404-B066-6B1F25BD63C7},Air,0
 Node,286,{49E843CA-7075-4EC6-AD09-149FC5663410},Air,0
 Node,287,{4A7CA4FF-BDD6-4335-BC78-5BD652BBA8C6},Air,0
 Node,288,{534E650D-659D-4F2A-93C9-E9E5BDF6BBAF},Air,0
 Node,289,{DE732C27-6E8A-4FDB-AAF9-92B21A37C24B},Air,0
 Node,290,{943FAC99-9DB8-4E11-82A1-28ED3CB0A4BE},Air,0
 Node,291,{2D91FDED-88EB-47AD-BEEC-F78D0B81753F},Air,0
 Node,292,{868A625E-708F-4E5E-9F1C-678ED8D11881},Air,0
 Node,293,{57C0D9BE-04C8-4003-BA11-A61165628DEC},Air,0
 Node,294,{6EEA392E-D3A3-48CF-8DB6-668489B7A051},Air,0
 Node,295,{CCE43FDD-6F1A-4719-A086-77C97798B568},Air,0
 Node,296,{80ADF5BA-CCBA-4F5D-AB02-1AB5E88C4E05},Air,0
 Node,297,{CA5A8E8E-E1C6-44DD-9F3B-30A13C43ED47},Air,0
 Node,298,{A46BB929-691B-41BE-B6E5-39DFE1A8EEE6},Air,0
 Node,299,{B9372E0A-0540-47F1-8675-79FA15BFA7F4},Air,0
 Node,300,{A97327CA-7183-4EE2-B533-EA276660136A},Air,0
 Node,301,{DB091DDF-0257-4F89-8204-44A75AB40AB1},Air,0
 Node,302,{9C0F4B6E-57E6-49E7-844C-4D4B77290868},Air,0
 Node,303,BASESYS5 F1 ZONE MIXER OUTLET NODE,Air,2
 Node,304,DOAS1 ZONE MIXER OUTLET NODE,Air,2
 Node,305,BASESYS5 OACTRL OA SYSTEM OA NODE,Air,2
 Node,306,DOAS1 OACTRL OA SYSTEM OA NODE,Air,2
 Node,307,MODEL OUTDOOR AIR NODE,Air,0
 Node,308,BASESYS5 F1 ZONE SPLITTER OUTLET NODE 1,Air,1
 Node,309,BASESYS5 F1 ZONE SPLITTER OUTLET NODE 2,Air,1
 Node,310,BASESYS5 F1 ZONE SPLITTER OUTLET NODE 3,Air,1
 Node,311,BASESYS5 F1 ZONE SPLITTER OUTLET NODE 4,Air,1
 Node,312,BASESYS5 F1 ZONE SPLITTER OUTLET NODE 5,Air,1
 Node,313,BASESYS5 F1 ZONE SPLITTER OUTLET NODE 6,Air,1
 Node,314,BASESYS5 F1 ZONE SPLITTER OUTLET NODE 7,Air,1
 Node,315,BASESYS5 F1 ZONE SPLITTER OUTLET NODE 8,Air,1
 Node,316,BASESYS5 F1 ZONE SPLITTER OUTLET NODE 9,Air,1
 Node,317,BASESYS5 F1 ZONE SPLITTER OUTLET NODE 10,Air,1
 Node,318,DOAS1 ZONE SPLITTER OUTLET NODE 1,Air,1
 Node,319,DOAS1 ZONE SPLITTER OUTLET NODE 2,Air,1
 Node,320,BASEVAV TRMLUNIT DAMPER OUTLET,Air,1
 Node,321,BASEVAV TRMLUNIT-2 DAMPER OUTLET,Air,1
 Node,322,BASEVAV TRMLUNIT-4 DAMPER OUTLET,Air,1
 Node,323,BASEVAV TRMLUNIT-5 DAMPER OUTLET,Air,1
 Node,324,BASEVAV TRMLUNIT-3 DAMPER OUTLET,Air,1
 Node,325,BASEVAV TRMLUNIT-6 DAMPER OUTLET,Air,1
 Node,326,BASEVAV TRMLUNIT-7 DAMPER OUTLET,Air,1
 Node,327,BASEVAV TRMLUNIT-8 DAMPER OUTLET,Air,1
 Node,328,BASEVAV TRMLUNIT-9 DAMPER OUTLET,Air,1
 Node,329,BASEVAV TRMLUNIT-10 DAMPER OUTLET,Air,1
 Node,330,THERMAL ZONE: F2-4 1-BED CORE EAST PROPEXHFAN OUTLET NODE,Air,0
 Node,331,THERMAL ZONE: F2-4 1-BED CORE N PROPEXHFAN OUTLET NODE,Air,0
 Node,332,THERMAL ZONE: F2-4 1-BED CORE WEST PROPEXHFAN OUTLET NODE,Air,0
 Node,333,THERMAL ZONE: F2-4 1-BED NORTH PROPEXHFAN OUTLET NODE,Air,0
 Node,334,THERMAL ZONE: F2-4 2-BED CORE NE-NW PROPEXHFAN OUTLET NODE,Air,0
 Node,335,THERMAL ZONE: F2-4 2-BED EAST PROPEXHFAN OUTLET NODE,Air,0
 Node,336,THERMAL ZONE: F2-4 2-BED WEST PROPEXHFAN OUTLET NODE,Air,0
 Node,337,THERMAL ZONE: F2-4 3-BED NE PROPEXHFAN OUTLET NODE,Air,0
 Node,338,THERMAL ZONE: F2-4 3-BED NW PROPEXHFAN OUTLET NODE,Air,0
 Node,339,THERMAL ZONE: F2-4 STUDIO SE PROPEXHFAN OUTLET NODE,Air,0
 Node,340,THERMAL ZONE: F2-4 STUDIO SW PROPEXHFAN OUTLET NODE,Air,0
 Node,341,THERMAL ZONE: F5 1-BED CORE EAST PROPEXHFAN OUTLET NODE,Air,0
 Node,342,THERMAL ZONE: F5 1-BED CORE N PROPEXHFAN OUTLET NODE,Air,0
 Node,343,THERMAL ZONE: F5 1-BED CORE WEST PROPEXHFAN OUTLET NODE,Air,0
 Node,344,THERMAL ZONE: F5 1-BED NORTH PROPEXHFAN OUTLET NODE,Air,0
 Node,345,THERMAL ZONE: F5 2-BED CORE NE-NW PROPEXHFAN OUTLET NODE,Air,0
 Node,346,THERMAL ZONE: F5 2-BED EAST PROPEXHFAN OUTLET NODE,Air,0
 Node,347,THERMAL ZONE: F5 2-BED WEST PROPEXHFAN OUTLET NODE,Air,0
 Node,348,THERMAL ZONE: F5 3-BED NE PROPEXHFAN OUTLET NODE,Air,0
 Node,349,THERMAL ZONE: F5 3-BED NW PROPEXHFAN OUTLET NODE,Air,0
 Node,350,THERMAL ZONE: F5 STUDIO SE PROPEXHFAN OUTLET NODE,Air,0
 Node,351,THERMAL ZONE: F5 STUDIO SW PROPEXHFAN OUTLET NODE,Air,0
 Node,352,THERMAL ZONE: PARKING GARAGE PROPEXHFAN OUTLET NODE,Air,0
 Node,353,ZNSYS F2-4 1-BED CORE EAST HEATING COIL OUTLET NODE,Air,1
 Node,354,PROPNOCLG ZNSYS-3 HEATING COIL OUTLET NODE,Air,1
 Node,355,ZNSYS F2-4 1-BED CORE N HEATING COIL OUTLET NODE,Air,1
 Node,356,PROPNOCLG ZNSYS HEATING COIL OUTLET NODE,Air,1
 Node,357,ZNSYS F2-4 1-BED CORE WEST HEATING COIL OUTLET NODE,Air,1
 Node,358,PROPNOCLG ZNSYS-2 HEATING COIL OUTLET NODE,Air,1
 Node,359,ZNSYS F2-4 1-BED NORTH HEATING COIL OUTLET NODE,Air,1
 Node,360,PROPNOCLG ZNSYS-4 HEATING COIL OUTLET NODE,Air,1
 Node,361,ZNSYS F2-4 2-BED CORE NE-NW HEATING COIL OUTLET NODE,Air,1
 Node,362,PROPNOCLG ZNSYS-5 HEATING COIL OUTLET NODE,Air,1
 Node,363,ZNSYS F2-4 2-BED EAST HEATING COIL OUTLET NODE,Air,1
 Node,364,PROPNOCLG ZNSYS-6 HEATING COIL OUTLET NODE,Air,1
 Node,365,ZNSYS F2-4 2-BED WEST HEATING COIL OUTLET NODE,Air,1
 Node,366,PROPNOCLG ZNSYS-7 HEATING COIL OUTLET NODE,Air,1
 Node,367,ZNSYS F2-4 3-BED NE HEATING COIL OUTLET NODE,Air,1
 Node,368,PROPNOCLG ZNSYS-8 HEATING COIL OUTLET NODE,Air,1
 Node,369,ZNSYS F2-4 3-BED NW HEATING COIL OUTLET NODE,Air,1
 Node,370,PROPNOCLG ZNSYS-9 HEATING COIL OUTLET NODE,Air,1
 Node,371,PROPNOCLG ZNSYS-12 HEATING COIL OUTLET NODE,Air,1
 Node,372,ZNSYS F2-4 STUDIO SE HEATING COIL OUTLET NODE,Air,1
 Node,373,PROPNOCLG ZNSYS-10 HEATING COIL OUTLET NODE,Air,1
 Node,374,ZNSYS F2-4 STUDIO SW HEATING COIL OUTLET NODE,Air,1
 Node,375,PROPNOCLG ZNSYS-11 HEATING COIL OUTLET NODE,Air,1
 Node,376,ZNSYS F5 1-BED CORE EAST HEATING COIL OUTLET NODE,Air,1
 Node,377,PROPNOCLG ZNSYS-15 HEATING COIL OUTLET NODE,Air,1
 Node,378,ZNSYS F5 1-BED CORE N HEATING COIL OUTLET NODE,Air,1
 Node,379,PROPNOCLG ZNSYS-13 HEATING COIL OUTLET NODE,Air,1
 Node,380,ZNSYS F5 1-BED CORE WEST HEATING COIL OUTLET NODE,Air,1
 Node,381,PROPNOCLG ZNSYS-14 HEATING COIL OUTLET NODE,Air,1
 Node,382,ZNSYS F5 1-BED NORTH HEATING COIL OUTLET NODE,Air,1
 Node,383,PROPNOCLG ZNSYS-16 HEATING COIL OUTLET NODE,Air,1
 Node,384,ZNSYS F5 2-BED CORE NE-NW HEATING COIL OUTLET NODE,Air,1
 Node,385,PROPNOCLG ZNSYS-17 HEATING COIL OUTLET NODE,Air,1
 Node,386,ZNSYS F5 2-BED EAST HEATING COIL OUTLET NODE,Air,1
 Node,387,PROPNOCLG ZNSYS-18 HEATING COIL OUTLET NODE,Air,1
 Node,388,ZNSYS F5 2-BED WEST HEATING COIL OUTLET NODE,Air,1
 Node,389,PROPNOCLG ZNSYS-19 HEATING COIL OUTLET NODE,Air,1
 Node,390,ZNSYS F5 3-BED NE HEATING COIL OUTLET NODE,Air,1
 Node,391,PROPNOCLG ZNSYS-20 HEATING COIL OUTLET NODE,Air,1
 Node,392,ZNSYS F5 3-BED NW HEATING COIL OUTLET NODE,Air,1
 Node,393,PROPNOCLG ZNSYS-21 HEATING COIL OUTLET NODE,Air,1
 Node,394,PROPNOCLG ZNSYS-24 HEATING COIL OUTLET NODE,Air,1
 Node,395,ZNSYS F5 STUDIO SE HEATING COIL OUTLET NODE,Air,1
 Node,396,PROPNOCLG ZNSYS-22 HEATING COIL OUTLET NODE,Air,1
 Node,397,ZNSYS F5 STUDIO SW HEATING COIL OUTLET NODE,Air,1
 Node,398,PROPNOCLG ZNSYS-23 HEATING COIL OUTLET NODE,Air,1
 Node,399,PROPNOCLG ZNSYS-3 COOLING COIL OUTLET NODE,Air,1
 Node,400,PROPNOCLG ZNSYS COOLING COIL OUTLET NODE,Air,1
 Node,401,PROPNOCLG ZNSYS-2 COOLING COIL OUTLET NODE,Air,1
 Node,402,PROPNOCLG ZNSYS-4 COOLING COIL OUTLET NODE,Air,1
 Node,403,PROPNOCLG ZNSYS-5 COOLING COIL OUTLET NODE,Air,1
 Node,404,PROPNOCLG ZNSYS-6 COOLING COIL OUTLET NODE,Air,1
 Node,405,PROPNOCLG ZNSYS-7 COOLING COIL OUTLET NODE,Air,1
 Node,406,PROPNOCLG ZNSYS-8 COOLING COIL OUTLET NODE,Air,1
 Node,407,PROPNOCLG ZNSYS-9 COOLING COIL OUTLET NODE,Air,1
 Node,408,PROPNOCLG ZNSYS-12 COOLING COIL OUTLET NODE,Air,1
 Node,409,PROPNOCLG ZNSYS-10 COOLING COIL OUTLET NODE,Air,1
 Node,410,PROPNOCLG ZNSYS-11 COOLING COIL OUTLET NODE,Air,1
 Node,411,PROPNOCLG ZNSYS-15 COOLING COIL OUTLET NODE,Air,1
 Node,412,PROPNOCLG ZNSYS-13 COOLING COIL OUTLET NODE,Air,1
 Node,413,PROPNOCLG ZNSYS-14 COOLING COIL OUTLET NODE,Air,1
 Node,414,PROPNOCLG ZNSYS-16 COOLING COIL OUTLET NODE,Air,1
 Node,415,PROPNOCLG ZNSYS-17 COOLING COIL OUTLET NODE,Air,1
 Node,416,PROPNOCLG ZNSYS-18 COOLING COIL OUTLET NODE,Air,1
 Node,417,PROPNOCLG ZNSYS-19 COOLING COIL OUTLET NODE,Air,1
 Node,418,PROPNOCLG ZNSYS-20 COOLING COIL OUTLET NODE,Air,1
 Node,419,PROPNOCLG ZNSYS-21 COOLING COIL OUTLET NODE,Air,1
 Node,420,PROPNOCLG ZNSYS-24 COOLING COIL OUTLET NODE,Air,1
 Node,421,PROPNOCLG ZNSYS-22 COOLING COIL OUTLET NODE,Air,1
 Node,422,PROPNOCLG ZNSYS-23 COOLING COIL OUTLET NODE,Air,1
 Node,423,ZNSYS F2-4 1-BED CORE EAST COOLING COIL OUTLET NODE,Air,1
 Node,424,ZNSYS F2-4 1-BED CORE N COOLING COIL OUTLET NODE,Air,1
 Node,425,ZNSYS F2-4 1-BED CORE WEST COOLING COIL OUTLET NODE,Air,1
 Node,426,ZNSYS F2-4 1-BED NORTH COOLING COIL OUTLET NODE,Air,1
 Node,427,ZNSYS F2-4 2-BED CORE NE-NW COOLING COIL OUTLET NODE,Air,1
 Node,428,ZNSYS F2-4 2-BED EAST COOLING COIL OUTLET NODE,Air,1
 Node,429,ZNSYS F2-4 2-BED WEST COOLING COIL OUTLET NODE,Air,1
 Node,430,ZNSYS F2-4 3-BED NE COOLING COIL OUTLET NODE,Air,1
 Node,431,ZNSYS F2-4 3-BED NW COOLING COIL OUTLET NODE,Air,1
 Node,432,ZNSYS F2-4 STUDIO SE COOLING COIL OUTLET NODE,Air,1
 Node,433,ZNSYS F2-4 STUDIO SW COOLING COIL OUTLET NODE,Air,1
 Node,434,ZNSYS F5 1-BED CORE EAST COOLING COIL OUTLET NODE,Air,1
 Node,435,ZNSYS F5 1-BED CORE N COOLING COIL OUTLET NODE,Air,1
 Node,436,ZNSYS F5 1-BED CORE WEST COOLING COIL OUTLET NODE,Air,1
 Node,437,ZNSYS F5 1-BED NORTH COOLING COIL OUTLET NODE,Air,1
 Node,438,ZNSYS F5 2-BED CORE NE-NW COOLING COIL OUTLET NODE,Air,1
 Node,439,ZNSYS F5 2-BED EAST COOLING COIL OUTLET NODE,Air,1
 Node,440,ZNSYS F5 2-BED WEST COOLING COIL OUTLET NODE,Air,1
 Node,441,ZNSYS F5 3-BED NE COOLING COIL OUTLET NODE,Air,1
 Node,442,ZNSYS F5 3-BED NW COOLING COIL OUTLET NODE,Air,1
 Node,443,ZNSYS F5 STUDIO SE COOLING COIL OUTLET NODE,Air,1
 Node,444,ZNSYS F5 STUDIO SW COOLING COIL OUTLET NODE,Air,1
 Node,445,BASESYS5 OACTRL OA SYSTEM RELIEF NODE,Air,1
 Node,446,DOAS1 OACTRL OA SYSTEM RELIEF NODE,Air,1
! ===============================================================
! Suspicious nodes have 0 references.  It is normal for some nodes, however.
! Listing nodes with 0 references (culled from previous list):
! <Suspicious Node>,<NodeNumber>,<Node Name>,<Node Fluid Type>,<# Times Node Referenced After Definition>
 Suspicious Node,268,{760B0665-E409-4C59-87BB-BD4286A5E16B},Air,0
 Suspicious Node,269,{36160DD9-5DB2-47EB-A0D5-8FE89D794B62},Air,0
 Suspicious Node,270,{AD541A7B-4D3B-4838-9A9D-CB0F32F4A656},Air,0
 Suspicious Node,271,{C7582ED3-AB63-405B-8426-F1579CC61C27},Air,0
 Suspicious Node,272,{23716709-5E4C-4FD8-8FCD-1C04CCE17864},Air,0
 Suspicious Node,273,{F2ABE0E6-7A6A-45D7-B7B7-FCA2FF1CB82D},Air,0
 Suspicious Node,274,{A4002DDD-53F6-4DFF-B645-C107B864E357},Air,0
 Suspicious Node,275,{C57EF7AF-DEEA-458F-8280-3ED64EAED4AB},Air,0
 Suspicious Node,276,{647C8440-0528-472C-B8C0-7B071BFD6164},Air,0
 Suspicious Node,277,{1CD3C0B2-49C6-4EE1-AE9A-2773BF185481},Air,0
 Suspicious Node,278,{9BA2882D-79A8-4853-B813-4EB2D4537639},Air,0
 Suspicious Node,279,{4E253507-E181-4ECE-85ED-AC89051E7873},Air,0
 Suspicious Node,280,{17138FAA-CE48-46EC-81A8-B81FABED5130},Air,0
 Suspicious Node,281,{9DDD66A2-B91B-447E-B934-3F0F24F910AF},Air,0
 Suspicious Node,282,{AABDF1F3-6942-4A84-B9AA-CC1E66AB35C4},Air,0
 Suspicious Node,283,{5A292788-4D5A-4586-A491-3E3334672D04},Air,0
 Suspicious Node,284,{265F34B9-CAAF-4C01-8F40-06CC9BC05A4C},Air,0
 Suspicious Node,285,{A931DBBC-C3DA-4404-B066-6B1F25BD63C7},Air,0
 Suspicious Node,286,{49E843CA-7075-4EC6-AD09-149FC5663410},Air,0
 Suspicious Node,287,{4A7CA4FF-BDD6-4335-BC78-5BD652BBA8C6},Air,0
 Suspicious Node,288,{534E650D-659D-4F2A-93C9-E9E5BDF6BBAF},Air,0
 Suspicious Node,289,{DE732C27-6E8A-4FDB-AAF9-92B21A37C24B},Air,0
 Suspicious Node,290,{943FAC99-9DB8-4E11-82A1-28ED3CB0A4BE},Air,0
 Suspicious Node,291,{2D91FDED-88EB-47AD-BEEC-F78D0B81753F},Air,0
 Suspicious Node,292,{868A625E-708F-4E5E-9F1C-678ED8D11881},Air,0
 Suspicious Node,293,{57C0D9BE-04C8-4003-BA11-A61165628DEC},Air,0
 Suspicious Node,294,{6EEA392E-D3A3-48CF-8DB6-668489B7A051},Air,0
 Suspicious Node,295,{CCE43FDD-6F1A-4719-A086-77C97798B568},Air,0
 Suspicious Node,296,{80ADF5BA-CCBA-4F5D-AB02-1AB5E88C4E05},Air,0
 Suspicious Node,297,{CA5A8E8E-E1C6-44DD-9F3B-30A13C43ED47},Air,0
 Suspicious Node,298,{A46BB929-691B-41BE-B6E5-39DFE1A8EEE6},Air,0
 Suspicious Node,299,{B9372E0A-0540-47F1-8675-79FA15BFA7F4},Air,0
 Suspicious Node,300,{A97327CA-7183-4EE2-B533-EA276660136A},Air,0
 Suspicious Node,301,{DB091DDF-0257-4F89-8204-44A75AB40AB1},Air,0
 Suspicious Node,302,{9C0F4B6E-57E6-49E7-844C-4D4B77290868},Air,0
 Suspicious Node,307,MODEL OUTDOOR AIR NODE,Air,0
 Suspicious Node,330,THERMAL ZONE: F2-4 1-BED CORE EAST PROPEXHFAN OUTLET NODE,Air,0
 Suspicious Node,331,THERMAL ZONE: F2-4 1-BED CORE N PROPEXHFAN OUTLET NODE,Air,0
 Suspicious Node,332,THERMAL ZONE: F2-4 1-BED CORE WEST PROPEXHFAN OUTLET NODE,Air,0
 Suspicious Node,333,THERMAL ZONE: F2-4 1-BED NORTH PROPEXHFAN OUTLET NODE,Air,0
 Suspicious Node,334,THERMAL ZONE: F2-4 2-BED CORE NE-NW PROPEXHFAN OUTLET NODE,Air,0
 Suspicious Node,335,THERMAL ZONE: F2-4 2-BED EAST PROPEXHFAN OUTLET NODE,Air,0
 Suspicious Node,336,THERMAL ZONE: F2-4 2-BED WEST PROPEXHFAN OUTLET NODE,Air,0
 Suspicious Node,337,THERMAL ZONE: F2-4 3-BED NE PROPEXHFAN OUTLET NODE,Air,0
 Suspicious Node,338,THERMAL ZONE: F2-4 3-BED NW PROPEXHFAN OUTLET NODE,Air,0
 Suspicious Node,339,THERMAL ZONE: F2-4 STUDIO SE PROPEXHFAN OUTLET NODE,Air,0
 Suspicious Node,340,THERMAL ZONE: F2-4 STUDIO SW PROPEXHFAN OUTLET NODE,Air,0
 Suspicious Node,341,THERMAL ZONE: F5 1-BED CORE EAST PROPEXHFAN OUTLET NODE,Air,0
 Suspicious Node,342,THERMAL ZONE: F5 1-BED CORE N PROPEXHFAN OUTLET NODE,Air,0
 Suspicious Node,343,THERMAL ZONE: F5 1-BED CORE WEST PROPEXHFAN OUTLET NODE,Air,0
 Suspicious Node,344,THERMAL ZONE: F5 1-BED NORTH PROPEXHFAN OUTLET NODE,Air,0
 Suspicious Node,345,THERMAL ZONE: F5 2-BED CORE NE-NW PROPEXHFAN OUTLET NODE,Air,0
 Suspicious Node,346,THERMAL ZONE: F5 2-BED EAST PROPEXHFAN OUTLET NODE,Air,0
 Suspicious Node,347,THERMAL ZONE: F5 2-BED WEST PROPEXHFAN OUTLET NODE,Air,0
 Suspicious Node,348,THERMAL ZONE: F5 3-BED NE PROPEXHFAN OUTLET NODE,Air,0
 Suspicious Node,349,THERMAL ZONE: F5 3-BED NW PROPEXHFAN OUTLET NODE,Air,0
 Suspicious Node,350,THERMAL ZONE: F5 STUDIO SE PROPEXHFAN OUTLET NODE,Air,0
 Suspicious Node,351,THERMAL ZONE: F5 STUDIO SW PROPEXHFAN OUTLET NODE,Air,0
 Suspicious Node,352,THERMAL ZONE: PARKING GARAGE PROPEXHFAN OUTLET NODE,Air,0
! ===============================================================
! <#Branch Lists>,<Number of Branch Lists>
 #Branch Lists,8
! <Branch List>,<Branch List Count>,<Branch List Name>,<Loop Name>,<Loop Type>,<Number of Branches>
! <Branch>,<Branch Count>,<Branch Name>,<Loop Name>,<Loop Type>,<Branch Inlet Node Name>,<Branch Outlet Node Name>
 Branch List,1,BASESYS5 F1 SUPPLY BRANCHES,BASESYS5 F1,Air,1
   Branch,1,BASESYS5 F1 MAIN BRANCH,BASESYS5 F1,Air,BASESYS5 F1 SUPPLY SIDE (RETURN AIR) INLET NODE,BASESYS5 FAN OUTLET NODE
 Branch List,2,DOAS1 SUPPLY BRANCHES,DOAS1,Air,1
   Branch,1,DOAS1 MAIN BRANCH,DOAS1,Air,DOAS1 SUPPLY SIDE (RETURN AIR) INLET NODE,DOAS1 FAN OUTLET NODE
 Branch List,3,BASEHWSYSTEM SUPPLY BRANCHES,BASEHWSYSTEM,Plant Supply,3
   Branch,1,BASEHWSYSTEM SUPPLY INLET BRANCH,BASEHWSYSTEM,Plant Supply,BASEHWSYSTEM SUPPLY INLET NODE,BASEHWSYSTEM SUPPLY INLET PIPE NODE
   Branch,2,BASEHWSYSTEM SUPPLY BRANCH 1,BASEHWSYSTEM,Plant Supply,BASEHWSYSTEM SUPPLY SPLITTER OUTLET NODE 1,BASE BLR OUTLET NODE
   Branch,3,BASEHWSYSTEM SUPPLY OUTLET BRANCH,BASEHWSYSTEM,Plant Supply,BASEHWSYSTEM SUPPLY OUTLET PIPE NODE,BASEHWSYSTEM SUPPLY MIXER OUTLET NODE
 Branch List,4,BASEHWSYSTEM DEMAND BRANCHES,BASEHWSYSTEM,Plant Demand,14
   Branch,1,BASEHWSYSTEM DEMAND INLET BRANCH,BASEHWSYSTEM,Plant Demand,BASEHWSYSTEM DEMAND INLET NODE,BASEHWSYSTEM DEMAND INLET PIPE NODE
   Branch,2,BASEHWSYSTEM DEMAND BRANCH 1,BASEHWSYSTEM,Plant Demand,BASEHWSYSTEM DEMAND SPLITTER OUTLET NODE 1,BASESYS5 COILHTG WATER OUTLET NODE
   Branch,3,BASEHWSYSTEM DEMAND BRANCH 2,BASEHWSYSTEM,Plant Demand,BASEHWSYSTEM DEMAND SPLITTER OUTLET NODE 2,BASEVAVBOX COILHTG WATER OUTLET NODE
   Branch,4,BASEHWSYSTEM DEMAND BRANCH 3,BASEHWSYSTEM,Plant Demand,BASEHWSYSTEM DEMAND SPLITTER OUTLET NODE 3,BASEVAVBOX COILHTG-2 WATER OUTLET NODE
   Branch,5,BASEHWSYSTEM DEMAND BRANCH 4,BASEHWSYSTEM,Plant Demand,BASEHWSYSTEM DEMAND SPLITTER OUTLET NODE 4,BASEVAVBOX COILHTG-3 WATER OUTLET NODE
   Branch,6,BASEHWSYSTEM DEMAND BRANCH 5,BASEHWSYSTEM,Plant Demand,BASEHWSYSTEM DEMAND SPLITTER OUTLET NODE 5,BASEVAVBOX COILHTG-4 WATER OUTLET NODE
   Branch,7,BASEHWSYSTEM DEMAND BRANCH 6,BASEHWSYSTEM,Plant Demand,BASEHWSYSTEM DEMAND SPLITTER OUTLET NODE 6,BASEVAVBOX COILHTG-5 WATER OUTLET NODE
   Branch,8,BASEHWSYSTEM DEMAND BRANCH 7,BASEHWSYSTEM,Plant Demand,BASEHWSYSTEM DEMAND SPLITTER OUTLET NODE 7,BASEVAVBOX COILHTG-6 WATER OUTLET NODE
   Branch,9,BASEHWSYSTEM DEMAND BRANCH 8,BASEHWSYSTEM,Plant Demand,BASEHWSYSTEM DEMAND SPLITTER OUTLET NODE 8,BASEVAVBOX COILHTG-7 WATER OUTLET NODE
   Branch,10,BASEHWSYSTEM DEMAND BRANCH 9,BASEHWSYSTEM,Plant Demand,BASEHWSYSTEM DEMAND SPLITTER OUTLET NODE 9,BASEVAVBOX COILHTG-8 WATER OUTLET NODE
   Branch,11,BASEHWSYSTEM DEMAND BRANCH 10,BASEHWSYSTEM,Plant Demand,BASEHWSYSTEM DEMAND SPLITTER OUTLET NODE 10,BASEVAVBOX COILHTG-9 WATER OUTLET NODE
   Branch,12,BASEHWSYSTEM DEMAND BRANCH 11,BASEHWSYSTEM,Plant Demand,BASEHWSYSTEM DEMAND SPLITTER OUTLET NODE 11,BASEVAVBOX COILHTG-10 WATER OUTLET NODE
   Branch,13,BASEHWSYSTEM DEMAND BYPASS BRANCH,BASEHWSYSTEM,Plant Demand,BASEHWSYSTEM DEMAND BYPASS PIPE INLET NODE,BASEHWSYSTEM DEMAND BYPASS PIPE OUTLET NODE
   Branch,14,BASEHWSYSTEM DEMAND OUTLET BRANCH,BASEHWSYSTEM,Plant Demand,BASEHWSYSTEM DEMAND OUTLET PIPE NODE,BASEHWSYSTEM DEMAND MIXER OUTLET NODE
 Branch List,5,NONRESIDENTIAL ELEC DHW SYSTEM SUPPLY BRANCHES,NONRESIDENTIAL ELEC DHW SYSTEM,Plant Supply,3
   Branch,1,NONRESIDENTIAL ELEC DHW SYSTEM SUPPLY INLET BRANCH,NONRESIDENTIAL ELEC DHW SYSTEM,Plant Supply,NONRESIDENTIAL ELEC DHW SYSTEM SUPPLY INLET NODE,{67E54F3E-2BCE-4E32-B457-3509CE0633C3} OUTLET NODE
   Branch,2,NONRESIDENTIAL ELEC DHW SYSTEM SUPPLY BRANCH 1,NONRESIDENTIAL ELEC DHW SYSTEM,Plant Supply,NONRESIDENTIAL ELEC DHW SYSTEM SUPPLY SPLITTER OUTLET NODE 1,NONRES ELEC WATER HEATER SUPPLY OUTLET NODE
   Branch,3,NONRESIDENTIAL ELEC DHW SYSTEM SUPPLY OUTLET BRANCH,NONRESIDENTIAL ELEC DHW SYSTEM,Plant Supply,NONRESIDENTIAL ELEC DHW SYSTEM SUPPLY OUTLET PIPE NODE,NONRESIDENTIAL ELEC DHW SYSTEM SUPPLY MIXER OUTLET NODE
 Branch List,6,NONRESIDENTIAL ELEC DHW SYSTEM DEMAND BRANCHES,NONRESIDENTIAL ELEC DHW SYSTEM,Plant Demand,27
   Branch,1,NONRESIDENTIAL ELEC DHW SYSTEM DEMAND INLET BRANCH,NONRESIDENTIAL ELEC DHW SYSTEM,Plant Demand,NONRESIDENTIAL ELEC DHW SYSTEM DEMAND INLET NODE,NONRESIDENTIAL ELEC DHW SYSTEM DEMAND INLET PIPE NODE
   Branch,2,NONRESIDENTIAL ELEC DHW SYSTEM DEMAND BRANCH 1,NONRESIDENTIAL ELEC DHW SYSTEM,Plant Demand,NONRESIDENTIAL ELEC DHW SYSTEM DEMAND SPLITTER OUTLET NODE 1,F1 BUSINESS CENTER WATER USE CONNECTION OUTLET NODE
   Branch,3,NONRESIDENTIAL ELEC DHW SYSTEM DEMAND BRANCH 2,NONRESIDENTIAL ELEC DHW SYSTEM,Plant Demand,NONRESIDENTIAL ELEC DHW SYSTEM DEMAND SPLITTER OUTLET NODE 2,F1 ELEVATOR CORE WATER USE CONNECTION OUTLET NODE
   Branch,4,NONRESIDENTIAL ELEC DHW SYSTEM DEMAND BRANCH 3,NONRESIDENTIAL ELEC DHW SYSTEM,Plant Demand,NONRESIDENTIAL ELEC DHW SYSTEM DEMAND SPLITTER OUTLET NODE 3,F1 ELEVATOR N WATER USE CONNECTION OUTLET NODE
   Branch,5,NONRESIDENTIAL ELEC DHW SYSTEM DEMAND BRANCH 4,NONRESIDENTIAL ELEC DHW SYSTEM,Plant Demand,NONRESIDENTIAL ELEC DHW SYSTEM DEMAND SPLITTER OUTLET NODE 4,F1 ELEVATOR S WATER USE CONNECTION OUTLET NODE
   Branch,6,NONRESIDENTIAL ELEC DHW SYSTEM DEMAND BRANCH 5,NONRESIDENTIAL ELEC DHW SYSTEM,Plant Demand,NONRESIDENTIAL ELEC DHW SYSTEM DEMAND SPLITTER OUTLET NODE 5,F1 LEASING OFFICE WATER USE CONNECTION OUTLET NODE
   Branch,7,NONRESIDENTIAL ELEC DHW SYSTEM DEMAND BRANCH 6,NONRESIDENTIAL ELEC DHW SYSTEM,Plant Demand,NONRESIDENTIAL ELEC DHW SYSTEM DEMAND SPLITTER OUTLET NODE 6,F1 MECHANICAL ROOM WATER USE CONNECTION OUTLET NODE
   Branch,8,NONRESIDENTIAL ELEC DHW SYSTEM DEMAND BRANCH 7,NONRESIDENTIAL ELEC DHW SYSTEM,Plant Demand,NONRESIDENTIAL ELEC DHW SYSTEM DEMAND SPLITTER OUTLET NODE 7,F1 RETAIL N CORE WATER USE CONNECTION OUTLET NODE
   Branch,9,NONRESIDENTIAL ELEC DHW SYSTEM DEMAND BRANCH 8,NONRESIDENTIAL ELEC DHW SYSTEM,Plant Demand,NONRESIDENTIAL ELEC DHW SYSTEM DEMAND SPLITTER OUTLET NODE 8,F1 RETAIL NE CORE WATER USE CONNECTION OUTLET NODE
   Branch,10,NONRESIDENTIAL ELEC DHW SYSTEM DEMAND BRANCH 9,NONRESIDENTIAL ELEC DHW SYSTEM,Plant Demand,NONRESIDENTIAL ELEC DHW SYSTEM DEMAND SPLITTER OUTLET NODE 9,F1 RETAIL NE INNER WATER USE CONNECTION OUTLET NODE
   Branch,11,NONRESIDENTIAL ELEC DHW SYSTEM DEMAND BRANCH 10,NONRESIDENTIAL ELEC DHW SYSTEM,Plant Demand,NONRESIDENTIAL ELEC DHW SYSTEM DEMAND SPLITTER OUTLET NODE 10,F1 RETAIL NE OUTER WATER USE CONNECTION OUTLET NODE
   Branch,12,NONRESIDENTIAL ELEC DHW SYSTEM DEMAND BRANCH 11,NONRESIDENTIAL ELEC DHW SYSTEM,Plant Demand,NONRESIDENTIAL ELEC DHW SYSTEM DEMAND SPLITTER OUTLET NODE 11,F1 RETAIL NW INNER CORE WATER USE CONNECTION OUTLET NODE
   Branch,13,NONRESIDENTIAL ELEC DHW SYSTEM DEMAND BRANCH 12,NONRESIDENTIAL ELEC DHW SYSTEM,Plant Demand,NONRESIDENTIAL ELEC DHW SYSTEM DEMAND SPLITTER OUTLET NODE 12,F1 RETAIL NW OUTER WATER USE CONNECTION OUTLET NODE
   Branch,14,NONRESIDENTIAL ELEC DHW SYSTEM DEMAND BRANCH 13,NONRESIDENTIAL ELEC DHW SYSTEM,Plant Demand,NONRESIDENTIAL ELEC DHW SYSTEM DEMAND SPLITTER OUTLET NODE 13,F1 RETAIL NW OUTER CORE WATER USE CONNECTION OUTLET NODE
   Branch,15,NONRESIDENTIAL ELEC DHW SYSTEM DEMAND BRANCH 14,NONRESIDENTIAL ELEC DHW SYSTEM,Plant Demand,NONRESIDENTIAL ELEC DHW SYSTEM DEMAND SPLITTER OUTLET NODE 14,F1 RETAIL SE BOTTOM WATER USE CONNECTION OUTLET NODE
   Branch,16,NONRESIDENTIAL ELEC DHW SYSTEM DEMAND BRANCH 15,NONRESIDENTIAL ELEC DHW SYSTEM,Plant Demand,NONRESIDENTIAL ELEC DHW SYSTEM DEMAND SPLITTER OUTLET NODE 15,F1 RETAIL SE TOP WATER USE CONNECTION OUTLET NODE
   Branch,17,NONRESIDENTIAL ELEC DHW SYSTEM DEMAND BRANCH 16,NONRESIDENTIAL ELEC DHW SYSTEM,Plant Demand,NONRESIDENTIAL ELEC DHW SYSTEM DEMAND SPLITTER OUTLET NODE 16,F1 RETAIL SW BOTTOM WATER USE CONNECTION OUTLET NODE
   Branch,18,NONRESIDENTIAL ELEC DHW SYSTEM DEMAND BRANCH 17,NONRESIDENTIAL ELEC DHW SYSTEM,Plant Demand,NONRESIDENTIAL ELEC DHW SYSTEM DEMAND SPLITTER OUTLET NODE 17,F1 RETAIL SW CORE WATER USE CONNECTION OUTLET NODE
   Branch,19,NONRESIDENTIAL ELEC DHW SYSTEM DEMAND BRANCH 18,NONRESIDENTIAL ELEC DHW SYSTEM,Plant Demand,NONRESIDENTIAL ELEC DHW SYSTEM DEMAND SPLITTER OUTLET NODE 18,F1 RETAIL SW TOP WATER USE CONNECTION OUTLET NODE
   Branch,20,NONRESIDENTIAL ELEC DHW SYSTEM DEMAND BRANCH 19,NONRESIDENTIAL ELEC DHW SYSTEM,Plant Demand,NONRESIDENTIAL ELEC DHW SYSTEM DEMAND SPLITTER OUTLET NODE 19,F2-4 ELEVATOR CORE WATER USE CONNECTION OUTLET NODE
   Branch,21,NONRESIDENTIAL ELEC DHW SYSTEM DEMAND BRANCH 20,NONRESIDENTIAL ELEC DHW SYSTEM,Plant Demand,NONRESIDENTIAL ELEC DHW SYSTEM DEMAND SPLITTER OUTLET NODE 20,F2-4 ELEVATOR N WATER USE CONNECTION OUTLET NODE
   Branch,22,NONRESIDENTIAL ELEC DHW SYSTEM DEMAND BRANCH 21,NONRESIDENTIAL ELEC DHW SYSTEM,Plant Demand,NONRESIDENTIAL ELEC DHW SYSTEM DEMAND SPLITTER OUTLET NODE 21,F2-4 ELEVATOR S WATER USE CONNECTION OUTLET NODE
   Branch,23,NONRESIDENTIAL ELEC DHW SYSTEM DEMAND BRANCH 22,NONRESIDENTIAL ELEC DHW SYSTEM,Plant Demand,NONRESIDENTIAL ELEC DHW SYSTEM DEMAND SPLITTER OUTLET NODE 22,F5 ELEVATOR CORE WATER USE CONNECTION OUTLET NODE
   Branch,24,NONRESIDENTIAL ELEC DHW SYSTEM DEMAND BRANCH 23,NONRESIDENTIAL ELEC DHW SYSTEM,Plant Demand,NONRESIDENTIAL ELEC DHW SYSTEM DEMAND SPLITTER OUTLET NODE 23,F5 ELEVATOR N WATER USE CONNECTION OUTLET NODE
   Branch,25,NONRESIDENTIAL ELEC DHW SYSTEM DEMAND BRANCH 24,NONRESIDENTIAL ELEC DHW SYSTEM,Plant Demand,NONRESIDENTIAL ELEC DHW SYSTEM DEMAND SPLITTER OUTLET NODE 24,F5 ELEVATOR S WATER USE CONNECTION OUTLET NODE
   Branch,26,NONRESIDENTIAL ELEC DHW SYSTEM DEMAND BYPASS BRANCH,NONRESIDENTIAL ELEC DHW SYSTEM,Plant Demand,NONRESIDENTIAL ELEC DHW SYSTEM DEMAND BYPASS PIPE INLET NODE,NONRESIDENTIAL ELEC DHW SYSTEM DEMAND BYPASS PIPE OUTLET NODE
   Branch,27,NONRESIDENTIAL ELEC DHW SYSTEM DEMAND OUTLET BRANCH,NONRESIDENTIAL ELEC DHW SYSTEM,Plant Demand,NONRESIDENTIAL ELEC DHW SYSTEM DEMAND OUTLET PIPE NODE,NONRESIDENTIAL ELEC DHW SYSTEM DEMAND MIXER OUTLET NODE
 Branch List,7,NONRESIDENTIAL GAS DHW SYSTEM SUPPLY BRANCHES,NONRESIDENTIAL GAS DHW SYSTEM,Plant Supply,3
   Branch,1,NONRESIDENTIAL GAS DHW SYSTEM SUPPLY INLET BRANCH,NONRESIDENTIAL GAS DHW SYSTEM,Plant Supply,NONRESIDENTIAL GAS DHW SYSTEM SUPPLY INLET NODE,{06E23BF8-5339-4241-8527-42ED8EA44698} OUTLET NODE
   Branch,2,NONRESIDENTIAL GAS DHW SYSTEM SUPPLY BRANCH 1,NONRESIDENTIAL GAS DHW SYSTEM,Plant Supply,NONRESIDENTIAL GAS DHW SYSTEM SUPPLY SPLITTER OUTLET NODE 1,NONRES GAS WATER HEATER SUPPLY OUTLET NODE
   Branch,3,NONRESIDENTIAL GAS DHW SYSTEM SUPPLY OUTLET BRANCH,NONRESIDENTIAL GAS DHW SYSTEM,Plant Supply,NONRESIDENTIAL GAS DHW SYSTEM SUPPLY OUTLET PIPE NODE,NONRESIDENTIAL GAS DHW SYSTEM SUPPLY MIXER OUTLET NODE
 Branch List,8,NONRESIDENTIAL GAS DHW SYSTEM DEMAND BRANCHES,NONRESIDENTIAL GAS DHW SYSTEM,Plant Demand,7
   Branch,1,NONRESIDENTIAL GAS DHW SYSTEM DEMAND INLET BRANCH,NONRESIDENTIAL GAS DHW SYSTEM,Plant Demand,NONRESIDENTIAL GAS DHW SYSTEM DEMAND INLET NODE,NONRESIDENTIAL GAS DHW SYSTEM DEMAND INLET PIPE NODE
   Branch,2,NONRESIDENTIAL GAS DHW SYSTEM DEMAND BRANCH 1,NONRESIDENTIAL GAS DHW SYSTEM,Plant Demand,NONRESIDENTIAL GAS DHW SYSTEM DEMAND SPLITTER OUTLET NODE 1,F1 LOUNGE WATER USE CONNECTION OUTLET NODE
   Branch,3,NONRESIDENTIAL GAS DHW SYSTEM DEMAND BRANCH 2,NONRESIDENTIAL GAS DHW SYSTEM,Plant Demand,NONRESIDENTIAL GAS DHW SYSTEM DEMAND SPLITTER OUTLET NODE 2,F1 FITNESS CENTER WATER USE CONNECTION OUTLET NODE
   Branch,4,NONRESIDENTIAL GAS DHW SYSTEM DEMAND BRANCH 3,NONRESIDENTIAL GAS DHW SYSTEM,Plant Demand,NONRESIDENTIAL GAS DHW SYSTEM DEMAND SPLITTER OUTLET NODE 3,F2-4 LAUNDRY WATER USE CONNECTION OUTLET NODE
   Branch,5,NONRESIDENTIAL GAS DHW SYSTEM DEMAND BRANCH 4,NONRESIDENTIAL GAS DHW SYSTEM,Plant Demand,NONRESIDENTIAL GAS DHW SYSTEM DEMAND SPLITTER OUTLET NODE 4,F5 LAUNDRY WATER USE CONNECTION OUTLET NODE
   Branch,6,NONRESIDENTIAL GAS DHW SYSTEM DEMAND BYPASS BRANCH,NONRESIDENTIAL GAS DHW SYSTEM,Plant Demand,NONRESIDENTIAL GAS DHW SYSTEM DEMAND BYPASS PIPE INLET NODE,NONRESIDENTIAL GAS DHW SYSTEM DEMAND BYPASS PIPE OUTLET NODE
   Branch,7,NONRESIDENTIAL GAS DHW SYSTEM DEMAND OUTLET BRANCH,NONRESIDENTIAL GAS DHW SYSTEM,Plant Demand,NONRESIDENTIAL GAS DHW SYSTEM DEMAND OUTLET PIPE NODE,NONRESIDENTIAL GAS DHW SYSTEM DEMAND MIXER OUTLET NODE
! ===============================================================
! <#Supply Air Paths>,<Number of Supply Air Paths>
 #Supply Air Paths,2
! <Supply Air Path>,<Supply Air Path Count>,<Supply Air Path Name>,<AirLoopHVAC Name>
! <#Components on Supply Air Path>,<Number of Components>
! <Supply Air Path Component>,<Component Count>,<Component Type>,<Component Name>,<AirLoopHVAC Name>
! <#Outlet Nodes on Supply Air Path Component>,<Number of Nodes>
! <Supply Air Path Component Nodes>,<Node Count>,<Component Type>,<Component Name>,<Inlet Node Name>,<Outlet Node Name>,<AirLoopHVAC Name>
 Supply Air Path,1,BASESYS5 F1 BASESYS5 F1 DEMAND SIDE (SUPPLY AIR) INLET NODE SUPPLY PATH,BASESYS5 F1
   #Components on Supply Air Path,1
   Supply Air Path Component,1,AIRLOOPHVAC:ZONESPLITTER,BASESYS5 F1 ZONE SPLITTER,BASESYS5 F1
     #Outlet Nodes on Supply Air Path Component,10
     Supply Air Path Component Nodes,1,AIRLOOPHVAC:ZONESPLITTER,BASESYS5 F1 ZONE SPLITTER,BASESYS5 F1 DEMAND SIDE (SUPPLY AIR) INLET NODE,BASESYS5 F1 ZONE SPLITTER OUTLET NODE 1,BASESYS5 F1
     Supply Air Path Component Nodes,2,AIRLOOPHVAC:ZONESPLITTER,BASESYS5 F1 ZONE SPLITTER,BASESYS5 F1 DEMAND SIDE (SUPPLY AIR) INLET NODE,BASESYS5 F1 ZONE SPLITTER OUTLET NODE 2,BASESYS5 F1
     Supply Air Path Component Nodes,3,AIRLOOPHVAC:ZONESPLITTER,BASESYS5 F1 ZONE SPLITTER,BASESYS5 F1 DEMAND SIDE (SUPPLY AIR) INLET NODE,BASESYS5 F1 ZONE SPLITTER OUTLET NODE 3,BASESYS5 F1
     Supply Air Path Component Nodes,4,AIRLOOPHVAC:ZONESPLITTER,BASESYS5 F1 ZONE SPLITTER,BASESYS5 F1 DEMAND SIDE (SUPPLY AIR) INLET NODE,BASESYS5 F1 ZONE SPLITTER OUTLET NODE 4,BASESYS5 F1
     Supply Air Path Component Nodes,5,AIRLOOPHVAC:ZONESPLITTER,BASESYS5 F1 ZONE SPLITTER,BASESYS5 F1 DEMAND SIDE (SUPPLY AIR) INLET NODE,BASESYS5 F1 ZONE SPLITTER OUTLET NODE 5,BASESYS5 F1
     Supply Air Path Component Nodes,6,AIRLOOPHVAC:ZONESPLITTER,BASESYS5 F1 ZONE SPLITTER,BASESYS5 F1 DEMAND SIDE (SUPPLY AIR) INLET NODE,BASESYS5 F1 ZONE SPLITTER OUTLET NODE 6,BASESYS5 F1
     Supply Air Path Component Nodes,7,AIRLOOPHVAC:ZONESPLITTER,BASESYS5 F1 ZONE SPLITTER,BASESYS5 F1 DEMAND SIDE (SUPPLY AIR) INLET NODE,BASESYS5 F1 ZONE SPLITTER OUTLET NODE 7,BASESYS5 F1
     Supply Air Path Component Nodes,8,AIRLOOPHVAC:ZONESPLITTER,BASESYS5 F1 ZONE SPLITTER,BASESYS5 F1 DEMAND SIDE (SUPPLY AIR) INLET NODE,BASESYS5 F1 ZONE SPLITTER OUTLET NODE 8,BASESYS5 F1
     Supply Air Path Component Nodes,9,AIRLOOPHVAC:ZONESPLITTER,BASESYS5 F1 ZONE SPLITTER,BASESYS5 F1 DEMAND SIDE (SUPPLY AIR) INLET NODE,BASESYS5 F1 ZONE SPLITTER OUTLET NODE 9,BASESYS5 F1
     Supply Air Path Component Nodes,10,AIRLOOPHVAC:ZONESPLITTER,BASESYS5 F1 ZONE SPLITTER,BASESYS5 F1 DEMAND SIDE (SUPPLY AIR) INLET NODE,BASESYS5 F1 ZONE SPLITTER OUTLET NODE 10,BASESYS5 F1
! <#Nodes on Supply Air Path>,<Number of Nodes>
! <Supply Air Path Node>,<Node Type>,<Node Count>,<Node Name>,<AirLoopHVAC Name>
#Nodes on Supply Air Path,11
   Supply Air Path Node,Inlet Node,1,BASESYS5 F1 DEMAND SIDE (SUPPLY AIR) INLET NODE,BASESYS5 F1
   Supply Air Path Node,Outlet Node,2,BASESYS5 F1 ZONE SPLITTER OUTLET NODE 1,BASESYS5 F1
   Supply Air Path Node,Outlet Node,3,BASESYS5 F1 ZONE SPLITTER OUTLET NODE 2,BASESYS5 F1
   Supply Air Path Node,Outlet Node,4,BASESYS5 F1 ZONE SPLITTER OUTLET NODE 3,BASESYS5 F1
   Supply Air Path Node,Outlet Node,5,BASESYS5 F1 ZONE SPLITTER OUTLET NODE 4,BASESYS5 F1
   Supply Air Path Node,Outlet Node,6,BASESYS5 F1 ZONE SPLITTER OUTLET NODE 5,BASESYS5 F1
   Supply Air Path Node,Outlet Node,7,BASESYS5 F1 ZONE SPLITTER OUTLET NODE 6,BASESYS5 F1
   Supply Air Path Node,Outlet Node,8,BASESYS5 F1 ZONE SPLITTER OUTLET NODE 7,BASESYS5 F1
   Supply Air Path Node,Outlet Node,9,BASESYS5 F1 ZONE SPLITTER OUTLET NODE 8,BASESYS5 F1
   Supply Air Path Node,Outlet Node,10,BASESYS5 F1 ZONE SPLITTER OUTLET NODE 9,BASESYS5 F1
   Supply Air Path Node,Outlet Node,11,BASESYS5 F1 ZONE SPLITTER OUTLET NODE 10,BASESYS5 F1
 Supply Air Path,2,DOAS1 DOAS1 DEMAND SIDE (SUPPLY AIR) INLET NODE SUPPLY PATH,DOAS1
   #Components on Supply Air Path,1
   Supply Air Path Component,1,AIRLOOPHVAC:ZONESPLITTER,DOAS1 ZONE SPLITTER,DOAS1
     #Outlet Nodes on Supply Air Path Component,2
     Supply Air Path Component Nodes,1,AIRLOOPHVAC:ZONESPLITTER,DOAS1 ZONE SPLITTER,DOAS1 DEMAND SIDE (SUPPLY AIR) INLET NODE,DOAS1 ZONE SPLITTER OUTLET NODE 1,DOAS1
     Supply Air Path Component Nodes,2,AIRLOOPHVAC:ZONESPLITTER,DOAS1 ZONE SPLITTER,DOAS1 DEMAND SIDE (SUPPLY AIR) INLET NODE,DOAS1 ZONE SPLITTER OUTLET NODE 2,DOAS1
! <#Nodes on Supply Air Path>,<Number of Nodes>
! <Supply Air Path Node>,<Node Type>,<Node Count>,<Node Name>,<AirLoopHVAC Name>
#Nodes on Supply Air Path,3
   Supply Air Path Node,Inlet Node,1,DOAS1 DEMAND SIDE (SUPPLY AIR) INLET NODE,DOAS1
   Supply Air Path Node,Outlet Node,2,DOAS1 ZONE SPLITTER OUTLET NODE 1,DOAS1
   Supply Air Path Node,Outlet Node,3,DOAS1 ZONE SPLITTER OUTLET NODE 2,DOAS1
! ===============================================================
! <#Return Air Paths>,<Number of Return Air Paths>
 #Return Air Paths,2
! <Return Air Path>,<Return Air Path Count>,<Return Air Path Name>,<AirLoopHVAC Name>
! <#Components on Return Air Path>,<Number of Components>
! <Return Air Path Component>,<Component Count>,<Component Type>,<Component Name>,<AirLoopHVAC Name>
! <#Inlet Nodes on Return Air Path Component>,<Number of Nodes>
! <Return Air Path Component Nodes>,<Node Count>,<Component Type>,<Component Name>,<Inlet Node Name>,<Outlet Node Name>,<AirLoopHVAC Name>
 Return Air Path,1,BASESYS5 F1 RETURN PATH,BASESYS5 F1
   #Components on Return Air Path,1
   Return Air Path Component,1,AIRLOOPHVAC:ZONEMIXER,BASESYS5 F1 ZONE MIXER,BASESYS5 F1
     #Inlet Nodes on Return Air Path Component,10
     Return Air Path Component Nodes,1,AIRLOOPHVAC:ZONEMIXER,BASESYS5 F1 ZONE MIXER,THERMAL ZONE: F1 BUSINESS CENTER RETURN AIR NODE,BASESYS5 F1 ZONE MIXER OUTLET NODE,BASESYS5 F1
     Return Air Path Component Nodes,2,AIRLOOPHVAC:ZONEMIXER,BASESYS5 F1 ZONE MIXER,THERMAL ZONE: F1 CORRIDOR RETURN AIR NODE,BASESYS5 F1 ZONE MIXER OUTLET NODE,BASESYS5 F1
     Return Air Path Component Nodes,3,AIRLOOPHVAC:ZONEMIXER,BASESYS5 F1 ZONE MIXER,THERMAL ZONE: F1 LOUNGE RETURN AIR NODE,BASESYS5 F1 ZONE MIXER OUTLET NODE,BASESYS5 F1
     Return Air Path Component Nodes,4,AIRLOOPHVAC:ZONEMIXER,BASESYS5 F1 ZONE MIXER,THERMAL ZONE: F1 FITNESS CENTER RETURN AIR NODE,BASESYS5 F1 ZONE MIXER OUTLET NODE,BASESYS5 F1
     Return Air Path Component Nodes,5,AIRLOOPHVAC:ZONEMIXER,BASESYS5 F1 ZONE MIXER,THERMAL ZONE: F1 LEASING OFFICE RETURN AIR NODE,BASESYS5 F1 ZONE MIXER OUTLET NODE,BASESYS5 F1
     Return Air Path Component Nodes,6,AIRLOOPHVAC:ZONEMIXER,BASESYS5 F1 ZONE MIXER,THERMAL ZONE: F1 MECHANICAL ROOM RETURN AIR NODE,BASESYS5 F1 ZONE MIXER OUTLET NODE,BASESYS5 F1
     Return Air Path Component Nodes,7,AIRLOOPHVAC:ZONEMIXER,BASESYS5 F1 ZONE MIXER,THERMAL ZONE: F1 RETAIL N-NW RETURN AIR NODE,BASESYS5 F1 ZONE MIXER OUTLET NODE,BASESYS5 F1
     Return Air Path Component Nodes,8,AIRLOOPHVAC:ZONEMIXER,BASESYS5 F1 ZONE MIXER,THERMAL ZONE: F1 RETAIL NE RETURN AIR NODE,BASESYS5 F1 ZONE MIXER OUTLET NODE,BASESYS5 F1
     Return Air Path Component Nodes,9,AIRLOOPHVAC:ZONEMIXER,BASESYS5 F1 ZONE MIXER,THERMAL ZONE: F1 RETAIL SE RETURN AIR NODE,BASESYS5 F1 ZONE MIXER OUTLET NODE,BASESYS5 F1
     Return Air Path Component Nodes,10,AIRLOOPHVAC:ZONEMIXER,BASESYS5 F1 ZONE MIXER,THERMAL ZONE: F1 RETAIL SW RETURN AIR NODE,BASESYS5 F1 ZONE MIXER OUTLET NODE,BASESYS5 F1
! <#Nodes on Return Air Path>,<Number of Nodes>
! <Return Air Path Node>,<Node Type>,<Node Count>,<Node Name>,<AirLoopHVAC Name>
   #Nodes on Return Air Path,11
   Return Air Path Node,Outlet Node,1,BASESYS5 F1 ZONE MIXER OUTLET NODE,BASESYS5 F1
   Return Air Path Node,Inlet Node,2,THERMAL ZONE: F1 BUSINESS CENTER RETURN AIR NODE,BASESYS5 F1
   Return Air Path Node,Inlet Node,3,THERMAL ZONE: F1 CORRIDOR RETURN AIR NODE,BASESYS5 F1
   Return Air Path Node,Inlet Node,4,THERMAL ZONE: F1 LOUNGE RETURN AIR NODE,BASESYS5 F1
   Return Air Path Node,Inlet Node,5,THERMAL ZONE: F1 FITNESS CENTER RETURN AIR NODE,BASESYS5 F1
   Return Air Path Node,Inlet Node,6,THERMAL ZONE: F1 LEASING OFFICE RETURN AIR NODE,BASESYS5 F1
   Return Air Path Node,Inlet Node,7,THERMAL ZONE: F1 MECHANICAL ROOM RETURN AIR NODE,BASESYS5 F1
   Return Air Path Node,Inlet Node,8,THERMAL ZONE: F1 RETAIL N-NW RETURN AIR NODE,BASESYS5 F1
   Return Air Path Node,Inlet Node,9,THERMAL ZONE: F1 RETAIL NE RETURN AIR NODE,BASESYS5 F1
   Return Air Path Node,Inlet Node,10,THERMAL ZONE: F1 RETAIL SE RETURN AIR NODE,BASESYS5 F1
   Return Air Path Node,Inlet Node,11,THERMAL ZONE: F1 RETAIL SW RETURN AIR NODE,BASESYS5 F1
 Return Air Path,2,DOAS1 RETURN PATH,DOAS1
   #Components on Return Air Path,1
   Return Air Path Component,1,AIRLOOPHVAC:ZONEMIXER,DOAS1 ZONE MIXER,DOAS1
     #Inlet Nodes on Return Air Path Component,2
     Return Air Path Component Nodes,1,AIRLOOPHVAC:ZONEMIXER,DOAS1 ZONE MIXER,THERMAL ZONE: F2-4 CORRIDOR RETURN AIR NODE,DOAS1 ZONE MIXER OUTLET NODE,DOAS1
     Return Air Path Component Nodes,2,AIRLOOPHVAC:ZONEMIXER,DOAS1 ZONE MIXER,THERMAL ZONE: F5 CORRIDOR RETURN AIR NODE,DOAS1 ZONE MIXER OUTLET NODE,DOAS1
! <#Nodes on Return Air Path>,<Number of Nodes>
! <Return Air Path Node>,<Node Type>,<Node Count>,<Node Name>,<AirLoopHVAC Name>
   #Nodes on Return Air Path,3
   Return Air Path Node,Outlet Node,1,DOAS1 ZONE MIXER OUTLET NODE,DOAS1
   Return Air Path Node,Inlet Node,2,THERMAL ZONE: F2-4 CORRIDOR RETURN AIR NODE,DOAS1
   Return Air Path Node,Inlet Node,3,THERMAL ZONE: F5 CORRIDOR RETURN AIR NODE,DOAS1
! ===============================================================
! #Outdoor Air Nodes,<Number of Outdoor Air Nodes>
 #Outdoor Air Nodes,3
! <Outdoor Air Node>,<NodeNumber>,<Node Name>
 Outdoor Air Node,305,BASESYS5 OACTRL OA SYSTEM OA NODE
 Outdoor Air Node,306,DOAS1 OACTRL OA SYSTEM OA NODE
 Outdoor Air Node,307,MODEL OUTDOOR AIR NODE
! ===============================================================
! <#Component Sets>,<Number of Component Sets>
 #Component Sets,232
! <Component Set>,<Component Set Count>,<Parent Object Type>,<Parent Object Name>,<Component Type>,<Component Name>,<Inlet Node ID>,<Outlet Node ID>,<Description>
 Component Set,1,BRANCH,BASESYS5 F1 MAIN BRANCH,AIRLOOPHVAC:OUTDOORAIRSYSTEM,BASESYS5 OACTRL OA SYSTEM,BASESYS5 F1 SUPPLY SIDE (RETURN AIR) INLET NODE,BASESYS5 OACTRL OA SYSTEM MIXED AIR NODE,Air Nodes
 Component Set,2,BRANCH,BASESYS5 F1 MAIN BRANCH,COILSYSTEM:COOLING:DX,BASESYS5 COILCLG COILSYSTEM,BASESYS5 OACTRL OA SYSTEM MIXED AIR NODE,BASESYS5 COILCLG OUTLET NODE,Air Nodes
 Component Set,3,BRANCH,BASESYS5 F1 MAIN BRANCH,COIL:HEATING:WATER,BASESYS5 COILHTG,BASESYS5 COILCLG OUTLET NODE,BASESYS5 COILHTG AIR OUTLET NODE,Air Nodes
 Component Set,4,BRANCH,BASESYS5 F1 MAIN BRANCH,FAN:VARIABLEVOLUME,BASESYS5 FAN,BASESYS5 COILHTG AIR OUTLET NODE,BASESYS5 FAN OUTLET NODE,Air Nodes
 Component Set,5,BRANCH,DOAS1 MAIN BRANCH,AIRLOOPHVAC:OUTDOORAIRSYSTEM,DOAS1 OACTRL OA SYSTEM,DOAS1 SUPPLY SIDE (RETURN AIR) INLET NODE,DOAS1 OACTRL OA SYSTEM MIXED AIR NODE,Air Nodes
 Component Set,6,BRANCH,DOAS1 MAIN BRANCH,COILSYSTEM:COOLING:DX,DOAS1 COILCLG COILSYSTEM,DOAS1 OACTRL OA SYSTEM MIXED AIR NODE,DOAS1 COILCLG OUTLET NODE,Air Nodes
 Component Set,7,BRANCH,DOAS1 MAIN BRANCH,COILSYSTEM:HEATING:DX,DOAS1 COILHTG COILSYSTEM,DOAS1 COILCLG OUTLET NODE,DOAS1 COILHTG OUTLET NODE,Air Nodes
 Component Set,8,BRANCH,DOAS1 MAIN BRANCH,COIL:HEATING:ELECTRIC,DOAS1 SUPPCOILHTG,DOAS1 COILHTG OUTLET NODE,DOAS1 SUPPCOILHTG OUTLET NODE,Air Nodes
 Component Set,9,BRANCH,DOAS1 MAIN BRANCH,FAN:CONSTANTVOLUME,DOAS1 FAN,DOAS1 SUPPCOILHTG OUTLET NODE,DOAS1 FAN OUTLET NODE,Air Nodes
 Component Set,10,BRANCH,BASEHWSYSTEM SUPPLY INLET BRANCH,PIPE:ADIABATIC,BASEHWSYSTEM SUPPLY INLET PIPE,BASEHWSYSTEM SUPPLY INLET NODE,BASEHWSYSTEM SUPPLY INLET PIPE NODE,Pipe Nodes
 Component Set,11,BRANCH,BASEHWSYSTEM SUPPLY BRANCH 1,PUMP:VARIABLESPEED,BASE HW PUMP,BASEHWSYSTEM SUPPLY SPLITTER OUTLET NODE 1,BASE HW PUMP OUTLET NODE,Water Nodes
 Component Set,12,BRANCH,BASEHWSYSTEM SUPPLY BRANCH 1,BOILER:HOTWATER,BASE BLR,BASE HW PUMP OUTLET NODE,BASE BLR OUTLET NODE,Hot Water Nodes
 Component Set,13,BRANCH,BASEHWSYSTEM SUPPLY OUTLET BRANCH,PIPE:ADIABATIC,BASEHWSYSTEM SUPPLY OUTLET PIPE,BASEHWSYSTEM SUPPLY OUTLET PIPE NODE,BASEHWSYSTEM SUPPLY MIXER OUTLET NODE,Pipe Nodes
 Component Set,14,BRANCH,BASEHWSYSTEM DEMAND INLET BRANCH,PIPE:ADIABATIC,BASEHWSYSTEM DEMAND INLET PIPE,BASEHWSYSTEM DEMAND INLET NODE,BASEHWSYSTEM DEMAND INLET PIPE NODE,Pipe Nodes
 Component Set,15,BRANCH,BASEHWSYSTEM DEMAND BRANCH 1,COIL:HEATING:WATER,BASESYS5 COILHTG,BASEHWSYSTEM DEMAND SPLITTER OUTLET NODE 1,BASESYS5 COILHTG WATER OUTLET NODE,Water Nodes
 Component Set,16,BRANCH,BASEHWSYSTEM DEMAND BRANCH 2,COIL:HEATING:WATER,BASEVAVBOX COILHTG,BASEHWSYSTEM DEMAND SPLITTER OUTLET NODE 2,BASEVAVBOX COILHTG WATER OUTLET NODE,Water Nodes
 Component Set,17,BRANCH,BASEHWSYSTEM DEMAND BRANCH 3,COIL:HEATING:WATER,BASEVAVBOX COILHTG-2,BASEHWSYSTEM DEMAND SPLITTER OUTLET NODE 3,BASEVAVBOX COILHTG-2 WATER OUTLET NODE,Water Nodes
 Component Set,18,BRANCH,BASEHWSYSTEM DEMAND BRANCH 4,COIL:HEATING:WATER,BASEVAVBOX COILHTG-3,BASEHWSYSTEM DEMAND SPLITTER OUTLET NODE 4,BASEVAVBOX COILHTG-3 WATER OUTLET NODE,Water Nodes
 Component Set,19,BRANCH,BASEHWSYSTEM DEMAND BRANCH 5,COIL:HEATING:WATER,BASEVAVBOX COILHTG-4,BASEHWSYSTEM DEMAND SPLITTER OUTLET NODE 5,BASEVAVBOX COILHTG-4 WATER OUTLET NODE,Water Nodes
 Component Set,20,BRANCH,BASEHWSYSTEM DEMAND BRANCH 6,COIL:HEATING:WATER,BASEVAVBOX COILHTG-5,BASEHWSYSTEM DEMAND SPLITTER OUTLET NODE 6,BASEVAVBOX COILHTG-5 WATER OUTLET NODE,Water Nodes
 Component Set,21,BRANCH,BASEHWSYSTEM DEMAND BRANCH 7,COIL:HEATING:WATER,BASEVAVBOX COILHTG-6,BASEHWSYSTEM DEMAND SPLITTER OUTLET NODE 7,BASEVAVBOX COILHTG-6 WATER OUTLET NODE,Water Nodes
 Component Set,22,BRANCH,BASEHWSYSTEM DEMAND BRANCH 8,COIL:HEATING:WATER,BASEVAVBOX COILHTG-7,BASEHWSYSTEM DEMAND SPLITTER OUTLET NODE 8,BASEVAVBOX COILHTG-7 WATER OUTLET NODE,Water Nodes
 Component Set,23,BRANCH,BASEHWSYSTEM DEMAND BRANCH 9,COIL:HEATING:WATER,BASEVAVBOX COILHTG-8,BASEHWSYSTEM DEMAND SPLITTER OUTLET NODE 9,BASEVAVBOX COILHTG-8 WATER OUTLET NODE,Water Nodes
 Component Set,24,BRANCH,BASEHWSYSTEM DEMAND BRANCH 10,COIL:HEATING:WATER,BASEVAVBOX COILHTG-9,BASEHWSYSTEM DEMAND SPLITTER OUTLET NODE 10,BASEVAVBOX COILHTG-9 WATER OUTLET NODE,Water Nodes
 Component Set,25,BRANCH,BASEHWSYSTEM DEMAND BRANCH 11,COIL:HEATING:WATER,BASEVAVBOX COILHTG-10,BASEHWSYSTEM DEMAND SPLITTER OUTLET NODE 11,BASEVAVBOX COILHTG-10 WATER OUTLET NODE,Water Nodes
 Component Set,26,BRANCH,BASEHWSYSTEM DEMAND BYPASS BRANCH,PIPE:ADIABATIC,BASEHWSYSTEM DEMAND BYPASS PIPE,BASEHWSYSTEM DEMAND BYPASS PIPE INLET NODE,BASEHWSYSTEM DEMAND BYPASS PIPE OUTLET NODE,Pipe Nodes
 Component Set,27,BRANCH,BASEHWSYSTEM DEMAND OUTLET BRANCH,PIPE:ADIABATIC,BASEHWSYSTEM DEMAND OUTLET PIPE,BASEHWSYSTEM DEMAND OUTLET PIPE NODE,BASEHWSYSTEM DEMAND MIXER OUTLET NODE,Pipe Nodes
 Component Set,28,BRANCH,NONRESIDENTIAL ELEC DHW SYSTEM SUPPLY INLET BRANCH,PUMP:VARIABLESPEED,{67E54F3E-2BCE-4E32-B457-3509CE0633C3},NONRESIDENTIAL ELEC DHW SYSTEM SUPPLY INLET NODE,{67E54F3E-2BCE-4E32-B457-3509CE0633C3} OUTLET NODE,Water Nodes
 Component Set,29,BRANCH,NONRESIDENTIAL ELEC DHW SYSTEM SUPPLY BRANCH 1,WATERHEATER:MIXED,NONRES ELEC WATER HEATER,NONRESIDENTIAL ELEC DHW SYSTEM SUPPLY SPLITTER OUTLET NODE 1,NONRES ELEC WATER HEATER SUPPLY OUTLET NODE,Use Side Water Nodes
 Component Set,30,BRANCH,NONRESIDENTIAL ELEC DHW SYSTEM SUPPLY OUTLET BRANCH,PIPE:ADIABATIC,NONRESIDENTIAL ELEC DHW SYSTEM SUPPLY OUTLET PIPE,NONRESIDENTIAL ELEC DHW SYSTEM SUPPLY OUTLET PIPE NODE,NONRESIDENTIAL ELEC DHW SYSTEM SUPPLY MIXER OUTLET NODE,Pipe Nodes
 Component Set,31,BRANCH,NONRESIDENTIAL ELEC DHW SYSTEM DEMAND INLET BRANCH,PIPE:ADIABATIC,NONRESIDENTIAL ELEC DHW SYSTEM DEMAND INLET PIPE,NONRESIDENTIAL ELEC DHW SYSTEM DEMAND INLET NODE,NONRESIDENTIAL ELEC DHW SYSTEM DEMAND INLET PIPE NODE,Pipe Nodes
 Component Set,32,BRANCH,NONRESIDENTIAL ELEC DHW SYSTEM DEMAND BRANCH 1,WATERUSE:CONNECTIONS,F1 BUSINESS CENTER WATER USE CONNECTION,NONRESIDENTIAL ELEC DHW SYSTEM DEMAND SPLITTER OUTLET NODE 1,F1 BUSINESS CENTER WATER USE CONNECTION OUTLET NODE,DHW Nodes
 Component Set,33,BRANCH,NONRESIDENTIAL ELEC DHW SYSTEM DEMAND BRANCH 2,WATERUSE:CONNECTIONS,F1 ELEVATOR CORE WATER USE CONNECTION,NONRESIDENTIAL ELEC DHW SYSTEM DEMAND SPLITTER OUTLET NODE 2,F1 ELEVATOR CORE WATER USE CONNECTION OUTLET NODE,DHW Nodes
 Component Set,34,BRANCH,NONRESIDENTIAL ELEC DHW SYSTEM DEMAND BRANCH 3,WATERUSE:CONNECTIONS,F1 ELEVATOR N WATER USE CONNECTION,NONRESIDENTIAL ELEC DHW SYSTEM DEMAND SPLITTER OUTLET NODE 3,F1 ELEVATOR N WATER USE CONNECTION OUTLET NODE,DHW Nodes
 Component Set,35,BRANCH,NONRESIDENTIAL ELEC DHW SYSTEM DEMAND BRANCH 4,WATERUSE:CONNECTIONS,F1 ELEVATOR S WATER USE CONNECTION,NONRESIDENTIAL ELEC DHW SYSTEM DEMAND SPLITTER OUTLET NODE 4,F1 ELEVATOR S WATER USE CONNECTION OUTLET NODE,DHW Nodes
 Component Set,36,BRANCH,NONRESIDENTIAL ELEC DHW SYSTEM DEMAND BRANCH 5,WATERUSE:CONNECTIONS,F1 LEASING OFFICE WATER USE CONNECTION,NONRESIDENTIAL ELEC DHW SYSTEM DEMAND SPLITTER OUTLET NODE 5,F1 LEASING OFFICE WATER USE CONNECTION OUTLET NODE,DHW Nodes
 Component Set,37,BRANCH,NONRESIDENTIAL ELEC DHW SYSTEM DEMAND BRANCH 6,WATERUSE:CONNECTIONS,F1 MECHANICAL ROOM WATER USE CONNECTION,NONRESIDENTIAL ELEC DHW SYSTEM DEMAND SPLITTER OUTLET NODE 6,F1 MECHANICAL ROOM WATER USE CONNECTION OUTLET NODE,DHW Nodes
 Component Set,38,BRANCH,NONRESIDENTIAL ELEC DHW SYSTEM DEMAND BRANCH 7,WATERUSE:CONNECTIONS,F1 RETAIL N CORE WATER USE CONNECTION,NONRESIDENTIAL ELEC DHW SYSTEM DEMAND SPLITTER OUTLET NODE 7,F1 RETAIL N CORE WATER USE CONNECTION OUTLET NODE,DHW Nodes
 Component Set,39,BRANCH,NONRESIDENTIAL ELEC DHW SYSTEM DEMAND BRANCH 8,WATERUSE:CONNECTIONS,F1 RETAIL NE CORE WATER USE CONNECTION,NONRESIDENTIAL ELEC DHW SYSTEM DEMAND SPLITTER OUTLET NODE 8,F1 RETAIL NE CORE WATER USE CONNECTION OUTLET NODE,DHW Nodes
 Component Set,40,BRANCH,NONRESIDENTIAL ELEC DHW SYSTEM DEMAND BRANCH 9,WATERUSE:CONNECTIONS,F1 RETAIL NE INNER WATER USE CONNECTION,NONRESIDENTIAL ELEC DHW SYSTEM DEMAND SPLITTER OUTLET NODE 9,F1 RETAIL NE INNER WATER USE CONNECTION OUTLET NODE,DHW Nodes
 Component Set,41,BRANCH,NONRESIDENTIAL ELEC DHW SYSTEM DEMAND BRANCH 10,WATERUSE:CONNECTIONS,F1 RETAIL NE OUTER WATER USE CONNECTION,NONRESIDENTIAL ELEC DHW SYSTEM DEMAND SPLITTER OUTLET NODE 10,F1 RETAIL NE OUTER WATER USE CONNECTION OUTLET NODE,DHW Nodes
 Component Set,42,BRANCH,NONRESIDENTIAL ELEC DHW SYSTEM DEMAND BRANCH 11,WATERUSE:CONNECTIONS,F1 RETAIL NW INNER CORE WATER USE CONNECTION,NONRESIDENTIAL ELEC DHW SYSTEM DEMAND SPLITTER OUTLET NODE 11,F1 RETAIL NW INNER CORE WATER USE CONNECTION OUTLET NODE,DHW Nodes
 Component Set,43,BRANCH,NONRESIDENTIAL ELEC DHW SYSTEM DEMAND BRANCH 12,WATERUSE:CONNECTIONS,F1 RETAIL NW OUTER WATER USE CONNECTION,NONRESIDENTIAL ELEC DHW SYSTEM DEMAND SPLITTER OUTLET NODE 12,F1 RETAIL NW OUTER WATER USE CONNECTION OUTLET NODE,DHW Nodes
 Component Set,44,BRANCH,NONRESIDENTIAL ELEC DHW SYSTEM DEMAND BRANCH 13,WATERUSE:CONNECTIONS,F1 RETAIL NW OUTER CORE WATER USE CONNECTION,NONRESIDENTIAL ELEC DHW SYSTEM DEMAND SPLITTER OUTLET NODE 13,F1 RETAIL NW OUTER CORE WATER USE CONNECTION OUTLET NODE,DHW Nodes
 Component Set,45,BRANCH,NONRESIDENTIAL ELEC DHW SYSTEM DEMAND BRANCH 14,WATERUSE:CONNECTIONS,F1 RETAIL SE BOTTOM WATER USE CONNECTION,NONRESIDENTIAL ELEC DHW SYSTEM DEMAND SPLITTER OUTLET NODE 14,F1 RETAIL SE BOTTOM WATER USE CONNECTION OUTLET NODE,DHW Nodes
 Component Set,46,BRANCH,NONRESIDENTIAL ELEC DHW SYSTEM DEMAND BRANCH 15,WATERUSE:CONNECTIONS,F1 RETAIL SE TOP WATER USE CONNECTION,NONRESIDENTIAL ELEC DHW SYSTEM DEMAND SPLITTER OUTLET NODE 15,F1 RETAIL SE TOP WATER USE CONNECTION OUTLET NODE,DHW Nodes
 Component Set,47,BRANCH,NONRESIDENTIAL ELEC DHW SYSTEM DEMAND BRANCH 16,WATERUSE:CONNECTIONS,F1 RETAIL SW BOTTOM WATER USE CONNECTION,NONRESIDENTIAL ELEC DHW SYSTEM DEMAND SPLITTER OUTLET NODE 16,F1 RETAIL SW BOTTOM WATER USE CONNECTION OUTLET NODE,DHW Nodes
 Component Set,48,BRANCH,NONRESIDENTIAL ELEC DHW SYSTEM DEMAND BRANCH 17,WATERUSE:CONNECTIONS,F1 RETAIL SW CORE WATER USE CONNECTION,NONRESIDENTIAL ELEC DHW SYSTEM DEMAND SPLITTER OUTLET NODE 17,F1 RETAIL SW CORE WATER USE CONNECTION OUTLET NODE,DHW Nodes
 Component Set,49,BRANCH,NONRESIDENTIAL ELEC DHW SYSTEM DEMAND BRANCH 18,WATERUSE:CONNECTIONS,F1 RETAIL SW TOP WATER USE CONNECTION,NONRESIDENTIAL ELEC DHW SYSTEM DEMAND SPLITTER OUTLET NODE 18,F1 RETAIL SW TOP WATER USE CONNECTION OUTLET NODE,DHW Nodes
 Component Set,50,BRANCH,NONRESIDENTIAL ELEC DHW SYSTEM DEMAND BRANCH 19,WATERUSE:CONNECTIONS,F2-4 ELEVATOR CORE WATER USE CONNECTION,NONRESIDENTIAL ELEC DHW SYSTEM DEMAND SPLITTER OUTLET NODE 19,F2-4 ELEVATOR CORE WATER USE CONNECTION OUTLET NODE,DHW Nodes
 Component Set,51,BRANCH,NONRESIDENTIAL ELEC DHW SYSTEM DEMAND BRANCH 20,WATERUSE:CONNECTIONS,F2-4 ELEVATOR N WATER USE CONNECTION,NONRESIDENTIAL ELEC DHW SYSTEM DEMAND SPLITTER OUTLET NODE 20,F2-4 ELEVATOR N WATER USE CONNECTION OUTLET NODE,DHW Nodes
 Component Set,52,BRANCH,NONRESIDENTIAL ELEC DHW SYSTEM DEMAND BRANCH 21,WATERUSE:CONNECTIONS,F2-4 ELEVATOR S WATER USE CONNECTION,NONRESIDENTIAL ELEC DHW SYSTEM DEMAND SPLITTER OUTLET NODE 21,F2-4 ELEVATOR S WATER USE CONNECTION OUTLET NODE,DHW Nodes
 Component Set,53,BRANCH,NONRESIDENTIAL ELEC DHW SYSTEM DEMAND BRANCH 22,WATERUSE:CONNECTIONS,F5 ELEVATOR CORE WATER USE CONNECTION,NONRESIDENTIAL ELEC DHW SYSTEM DEMAND SPLITTER OUTLET NODE 22,F5 ELEVATOR CORE WATER USE CONNECTION OUTLET NODE,DHW Nodes
 Component Set,54,BRANCH,NONRESIDENTIAL ELEC DHW SYSTEM DEMAND BRANCH 23,WATERUSE:CONNECTIONS,F5 ELEVATOR N WATER USE CONNECTION,NONRESIDENTIAL ELEC DHW SYSTEM DEMAND SPLITTER OUTLET NODE 23,F5 ELEVATOR N WATER USE CONNECTION OUTLET NODE,DHW Nodes
 Component Set,55,BRANCH,NONRESIDENTIAL ELEC DHW SYSTEM DEMAND BRANCH 24,WATERUSE:CONNECTIONS,F5 ELEVATOR S WATER USE CONNECTION,NONRESIDENTIAL ELEC DHW SYSTEM DEMAND SPLITTER OUTLET NODE 24,F5 ELEVATOR S WATER USE CONNECTION OUTLET NODE,DHW Nodes
 Component Set,56,BRANCH,NONRESIDENTIAL ELEC DHW SYSTEM DEMAND BYPASS BRANCH,PIPE:ADIABATIC,NONRESIDENTIAL ELEC DHW SYSTEM DEMAND BYPASS PIPE,NONRESIDENTIAL ELEC DHW SYSTEM DEMAND BYPASS PIPE INLET NODE,NONRESIDENTIAL ELEC DHW SYSTEM DEMAND BYPASS PIPE OUTLET NODE,Pipe Nodes
 Component Set,57,BRANCH,NONRESIDENTIAL ELEC DHW SYSTEM DEMAND OUTLET BRANCH,PIPE:ADIABATIC,NONRESIDENTIAL ELEC DHW SYSTEM DEMAND OUTLET PIPE,NONRESIDENTIAL ELEC DHW SYSTEM DEMAND OUTLET PIPE NODE,NONRESIDENTIAL ELEC DHW SYSTEM DEMAND MIXER OUTLET NODE,Pipe Nodes
 Component Set,58,BRANCH,NONRESIDENTIAL GAS DHW SYSTEM SUPPLY INLET BRANCH,PUMP:VARIABLESPEED,{06E23BF8-5339-4241-8527-42ED8EA44698},NONRESIDENTIAL GAS DHW SYSTEM SUPPLY INLET NODE,{06E23BF8-5339-4241-8527-42ED8EA44698} OUTLET NODE,Water Nodes
 Component Set,59,BRANCH,NONRESIDENTIAL GAS DHW SYSTEM SUPPLY BRANCH 1,WATERHEATER:MIXED,NONRES GAS WATER HEATER,NONRESIDENTIAL GAS DHW SYSTEM SUPPLY SPLITTER OUTLET NODE 1,NONRES GAS WATER HEATER SUPPLY OUTLET NODE,Use Side Water Nodes
 Component Set,60,BRANCH,NONRESIDENTIAL GAS DHW SYSTEM SUPPLY OUTLET BRANCH,PIPE:ADIABATIC,NONRESIDENTIAL GAS DHW SYSTEM SUPPLY OUTLET PIPE,NONRESIDENTIAL GAS DHW SYSTEM SUPPLY OUTLET PIPE NODE,NONRESIDENTIAL GAS DHW SYSTEM SUPPLY MIXER OUTLET NODE,Pipe Nodes
 Component Set,61,BRANCH,NONRESIDENTIAL GAS DHW SYSTEM DEMAND INLET BRANCH,PIPE:ADIABATIC,NONRESIDENTIAL GAS DHW SYSTEM DEMAND INLET PIPE,NONRESIDENTIAL GAS DHW SYSTEM DEMAND INLET NODE,NONRESIDENTIAL GAS DHW SYSTEM DEMAND INLET PIPE NODE,Pipe Nodes
 Component Set,62,BRANCH,NONRESIDENTIAL GAS DHW SYSTEM DEMAND BRANCH 1,WATERUSE:CONNECTIONS,F1 LOUNGE WATER USE CONNECTION,NONRESIDENTIAL GAS DHW SYSTEM DEMAND SPLITTER OUTLET NODE 1,F1 LOUNGE WATER USE CONNECTION OUTLET NODE,DHW Nodes
 Component Set,63,BRANCH,NONRESIDENTIAL GAS DHW SYSTEM DEMAND BRANCH 2,WATERUSE:CONNECTIONS,F1 FITNESS CENTER WATER USE CONNECTION,NONRESIDENTIAL GAS DHW SYSTEM DEMAND SPLITTER OUTLET NODE 2,F1 FITNESS CENTER WATER USE CONNECTION OUTLET NODE,DHW Nodes
 Component Set,64,BRANCH,NONRESIDENTIAL GAS DHW SYSTEM DEMAND BRANCH 3,WATERUSE:CONNECTIONS,F2-4 LAUNDRY WATER USE CONNECTION,NONRESIDENTIAL GAS DHW SYSTEM DEMAND SPLITTER OUTLET NODE 3,F2-4 LAUNDRY WATER USE CONNECTION OUTLET NODE,DHW Nodes
 Component Set,65,BRANCH,NONRESIDENTIAL GAS DHW SYSTEM DEMAND BRANCH 4,WATERUSE:CONNECTIONS,F5 LAUNDRY WATER USE CONNECTION,NONRESIDENTIAL GAS DHW SYSTEM DEMAND SPLITTER OUTLET NODE 4,F5 LAUNDRY WATER USE CONNECTION OUTLET NODE,DHW Nodes
 Component Set,66,BRANCH,NONRESIDENTIAL GAS DHW SYSTEM DEMAND BYPASS BRANCH,PIPE:ADIABATIC,NONRESIDENTIAL GAS DHW SYSTEM DEMAND BYPASS PIPE,NONRESIDENTIAL GAS DHW SYSTEM DEMAND BYPASS PIPE INLET NODE,NONRESIDENTIAL GAS DHW SYSTEM DEMAND BYPASS PIPE OUTLET NODE,Pipe Nodes
 Component Set,67,BRANCH,NONRESIDENTIAL GAS DHW SYSTEM DEMAND OUTLET BRANCH,PIPE:ADIABATIC,NONRESIDENTIAL GAS DHW SYSTEM DEMAND OUTLET PIPE,NONRESIDENTIAL GAS DHW SYSTEM DEMAND OUTLET PIPE NODE,NONRESIDENTIAL GAS DHW SYSTEM DEMAND MIXER OUTLET NODE,Pipe Nodes
 Component Set,68,ZONEHVAC:AIRDISTRIBUTIONUNIT,ADU BASEVAV TRMLUNIT,AIRTERMINAL:SINGLEDUCT:VAV:REHEAT,BASEVAV TRMLUNIT,BASESYS5 F1 ZONE SPLITTER OUTLET NODE 1,BASEVAV TRMLUNIT OUTLET NODE,Air Nodes
 Component Set,69,ZONEHVAC:AIRDISTRIBUTIONUNIT,ADU BASEVAV TRMLUNIT-2,AIRTERMINAL:SINGLEDUCT:VAV:REHEAT,BASEVAV TRMLUNIT-2,BASESYS5 F1 ZONE SPLITTER OUTLET NODE 2,BASEVAV TRMLUNIT-2 OUTLET NODE,Air Nodes
 Component Set,70,ZONEHVAC:AIRDISTRIBUTIONUNIT,ADU BASEVAV TRMLUNIT-4,AIRTERMINAL:SINGLEDUCT:VAV:REHEAT,BASEVAV TRMLUNIT-4,BASESYS5 F1 ZONE SPLITTER OUTLET NODE 4,BASEVAV TRMLUNIT-4 OUTLET NODE,Air Nodes
 Component Set,71,ZONEHVAC:AIRDISTRIBUTIONUNIT,ADU BASEVAV TRMLUNIT-5,AIRTERMINAL:SINGLEDUCT:VAV:REHEAT,BASEVAV TRMLUNIT-5,BASESYS5 F1 ZONE SPLITTER OUTLET NODE 5,BASEVAV TRMLUNIT-5 OUTLET NODE,Air Nodes
 Component Set,72,ZONEHVAC:AIRDISTRIBUTIONUNIT,ADU BASEVAV TRMLUNIT-3,AIRTERMINAL:SINGLEDUCT:VAV:REHEAT,BASEVAV TRMLUNIT-3,BASESYS5 F1 ZONE SPLITTER OUTLET NODE 3,BASEVAV TRMLUNIT-3 OUTLET NODE,Air Nodes
 Component Set,73,ZONEHVAC:AIRDISTRIBUTIONUNIT,ADU BASEVAV TRMLUNIT-6,AIRTERMINAL:SINGLEDUCT:VAV:REHEAT,BASEVAV TRMLUNIT-6,BASESYS5 F1 ZONE SPLITTER OUTLET NODE 6,BASEVAV TRMLUNIT-6 OUTLET NODE,Air Nodes
 Component Set,74,ZONEHVAC:AIRDISTRIBUTIONUNIT,ADU BASEVAV TRMLUNIT-7,AIRTERMINAL:SINGLEDUCT:VAV:REHEAT,BASEVAV TRMLUNIT-7,BASESYS5 F1 ZONE SPLITTER OUTLET NODE 7,BASEVAV TRMLUNIT-7 OUTLET NODE,Air Nodes
 Component Set,75,ZONEHVAC:AIRDISTRIBUTIONUNIT,ADU BASEVAV TRMLUNIT-8,AIRTERMINAL:SINGLEDUCT:VAV:REHEAT,BASEVAV TRMLUNIT-8,BASESYS5 F1 ZONE SPLITTER OUTLET NODE 8,BASEVAV TRMLUNIT-8 OUTLET NODE,Air Nodes
 Component Set,76,ZONEHVAC:AIRDISTRIBUTIONUNIT,ADU BASEVAV TRMLUNIT-9,AIRTERMINAL:SINGLEDUCT:VAV:REHEAT,BASEVAV TRMLUNIT-9,BASESYS5 F1 ZONE SPLITTER OUTLET NODE 9,BASEVAV TRMLUNIT-9 OUTLET NODE,Air Nodes
 Component Set,77,ZONEHVAC:AIRDISTRIBUTIONUNIT,ADU BASEVAV TRMLUNIT-10,AIRTERMINAL:SINGLEDUCT:VAV:REHEAT,BASEVAV TRMLUNIT-10,BASESYS5 F1 ZONE SPLITTER OUTLET NODE 10,BASEVAV TRMLUNIT-10 OUTLET NODE,Air Nodes
 Component Set,78,ZONEHVAC:AIRDISTRIBUTIONUNIT,ADU DOAS1 TRMLUNIT-1,AIRTERMINAL:SINGLEDUCT:CONSTANTVOLUME:NOREHEAT,DOAS1 TRMLUNIT-1,DOAS1 ZONE SPLITTER OUTLET NODE 1,DOAS1 TRMLUNIT-1 OUTLET NODE,Air Nodes
 Component Set,79,ZONEHVAC:AIRDISTRIBUTIONUNIT,ADU DOAS1 TRMLUNIT-3,AIRTERMINAL:SINGLEDUCT:CONSTANTVOLUME:NOREHEAT,DOAS1 TRMLUNIT-3,DOAS1 ZONE SPLITTER OUTLET NODE 2,DOAS1 TRMLUNIT-3 OUTLET NODE,Air Nodes
 Component Set,80,AIRTERMINAL:SINGLEDUCT:VAV:REHEAT,BASEVAV TRMLUNIT,COIL:HEATING:WATER,BASEVAVBOX COILHTG,BASEVAV TRMLUNIT DAMPER OUTLET,BASEVAV TRMLUNIT OUTLET NODE,Air Nodes
 Component Set,81,AIRTERMINAL:SINGLEDUCT:VAV:REHEAT,BASEVAV TRMLUNIT-2,COIL:HEATING:WATER,BASEVAVBOX COILHTG-2,BASEVAV TRMLUNIT-2 DAMPER OUTLET,BASEVAV TRMLUNIT-2 OUTLET NODE,Air Nodes
 Component Set,82,AIRTERMINAL:SINGLEDUCT:VAV:REHEAT,BASEVAV TRMLUNIT-4,COIL:HEATING:WATER,BASEVAVBOX COILHTG-4,BASEVAV TRMLUNIT-4 DAMPER OUTLET,BASEVAV TRMLUNIT-4 OUTLET NODE,Air Nodes
 Component Set,83,AIRTERMINAL:SINGLEDUCT:VAV:REHEAT,BASEVAV TRMLUNIT-5,COIL:HEATING:WATER,BASEVAVBOX COILHTG-5,BASEVAV TRMLUNIT-5 DAMPER OUTLET,BASEVAV TRMLUNIT-5 OUTLET NODE,Air Nodes
 Component Set,84,AIRTERMINAL:SINGLEDUCT:VAV:REHEAT,BASEVAV TRMLUNIT-3,COIL:HEATING:WATER,BASEVAVBOX COILHTG-3,BASEVAV TRMLUNIT-3 DAMPER OUTLET,BASEVAV TRMLUNIT-3 OUTLET NODE,Air Nodes
 Component Set,85,AIRTERMINAL:SINGLEDUCT:VAV:REHEAT,BASEVAV TRMLUNIT-6,COIL:HEATING:WATER,BASEVAVBOX COILHTG-6,BASEVAV TRMLUNIT-6 DAMPER OUTLET,BASEVAV TRMLUNIT-6 OUTLET NODE,Air Nodes
 Component Set,86,AIRTERMINAL:SINGLEDUCT:VAV:REHEAT,BASEVAV TRMLUNIT-7,COIL:HEATING:WATER,BASEVAVBOX COILHTG-7,BASEVAV TRMLUNIT-7 DAMPER OUTLET,BASEVAV TRMLUNIT-7 OUTLET NODE,Air Nodes
 Component Set,87,AIRTERMINAL:SINGLEDUCT:VAV:REHEAT,BASEVAV TRMLUNIT-8,COIL:HEATING:WATER,BASEVAVBOX COILHTG-8,BASEVAV TRMLUNIT-8 DAMPER OUTLET,BASEVAV TRMLUNIT-8 OUTLET NODE,Air Nodes
 Component Set,88,AIRTERMINAL:SINGLEDUCT:VAV:REHEAT,BASEVAV TRMLUNIT-9,COIL:HEATING:WATER,BASEVAVBOX COILHTG-9,BASEVAV TRMLUNIT-9 DAMPER OUTLET,BASEVAV TRMLUNIT-9 OUTLET NODE,Air Nodes
 Component Set,89,AIRTERMINAL:SINGLEDUCT:VAV:REHEAT,BASEVAV TRMLUNIT-10,COIL:HEATING:WATER,BASEVAVBOX COILHTG-10,BASEVAV TRMLUNIT-10 DAMPER OUTLET,BASEVAV TRMLUNIT-10 OUTLET NODE,Air Nodes
 Component Set,90,AIRLOOPHVAC:OUTDOORAIRSYSTEM,BASESYS5 OACTRL OA SYSTEM,OUTDOORAIR:MIXER,BASESYS5 OACTRL OA SYSTEM OUTDOOR AIR MIXER,BASESYS5 OACTRL OA SYSTEM OA NODE,BASESYS5 OACTRL OA SYSTEM MIXED AIR NODE,Air Nodes
 Component Set,91,AIRLOOPHVAC:OUTDOORAIRSYSTEM,DOAS1 OACTRL OA SYSTEM,OUTDOORAIR:MIXER,DOAS1 OACTRL OA SYSTEM OUTDOOR AIR MIXER,DOAS1 OACTRL OA SYSTEM OA NODE,DOAS1 OACTRL OA SYSTEM MIXED AIR NODE,Air Nodes
 Component Set,92,ZONEHVAC:PACKAGEDTERMINALAIRCONDITIONER,ZNSYS F2-4 1-BED CORE EAST,FAN:ONOFF,FAN 3,ZNSYS F2-4 1-BED CORE EAST HEATING COIL OUTLET NODE,ZNSYS F2-4 1-BED CORE EAST OUTLET NODE,Air Nodes
 Component Set,93,ZONEHVAC:PACKAGEDTERMINALAIRCONDITIONER,PROPNOCLG ZNSYS-3,FAN:ONOFF,PROPNOCLG FAN-3,PROPNOCLG ZNSYS-3 HEATING COIL OUTLET NODE,PROPNOCLG ZNSYS-3 OUTLET NODE,Air Nodes
 Component Set,94,ZONEHVAC:PACKAGEDTERMINALAIRCONDITIONER,ZNSYS F2-4 1-BED CORE N,FAN:ONOFF,FAN 1,ZNSYS F2-4 1-BED CORE N HEATING COIL OUTLET NODE,ZNSYS F2-4 1-BED CORE N OUTLET NODE,Air Nodes
 Component Set,95,ZONEHVAC:PACKAGEDTERMINALAIRCONDITIONER,PROPNOCLG ZNSYS,FAN:ONOFF,PROPNOCLG FAN,PROPNOCLG ZNSYS HEATING COIL OUTLET NODE,PROPNOCLG ZNSYS OUTLET NODE,Air Nodes
 Component Set,96,ZONEHVAC:PACKAGEDTERMINALAIRCONDITIONER,ZNSYS F2-4 1-BED CORE WEST,FAN:ONOFF,FAN 2,ZNSYS F2-4 1-BED CORE WEST HEATING COIL OUTLET NODE,ZNSYS F2-4 1-BED CORE WEST OUTLET NODE,Air Nodes
 Component Set,97,ZONEHVAC:PACKAGEDTERMINALAIRCONDITIONER,PROPNOCLG ZNSYS-2,FAN:ONOFF,PROPNOCLG FAN-2,PROPNOCLG ZNSYS-2 HEATING COIL OUTLET NODE,PROPNOCLG ZNSYS-2 OUTLET NODE,Air Nodes
 Component Set,98,ZONEHVAC:PACKAGEDTERMINALAIRCONDITIONER,ZNSYS F2-4 1-BED NORTH,FAN:ONOFF,FAN 4,ZNSYS F2-4 1-BED NORTH HEATING COIL OUTLET NODE,ZNSYS F2-4 1-BED NORTH OUTLET NODE,Air Nodes
 Component Set,99,ZONEHVAC:PACKAGEDTERMINALAIRCONDITIONER,PROPNOCLG ZNSYS-4,FAN:ONOFF,PROPNOCLG FAN-4,PROPNOCLG ZNSYS-4 HEATING COIL OUTLET NODE,PROPNOCLG ZNSYS-4 OUTLET NODE,Air Nodes
 Component Set,100,ZONEHVAC:PACKAGEDTERMINALAIRCONDITIONER,ZNSYS F2-4 2-BED CORE NE-NW,FAN:ONOFF,FAN 5,ZNSYS F2-4 2-BED CORE NE-NW HEATING COIL OUTLET NODE,ZNSYS F2-4 2-BED CORE NE-NW OUTLET NODE,Air Nodes
 Component Set,101,ZONEHVAC:PACKAGEDTERMINALAIRCONDITIONER,PROPNOCLG ZNSYS-5,FAN:ONOFF,PROPNOCLG FAN-5,PROPNOCLG ZNSYS-5 HEATING COIL OUTLET NODE,PROPNOCLG ZNSYS-5 OUTLET NODE,Air Nodes
 Component Set,102,ZONEHVAC:PACKAGEDTERMINALAIRCONDITIONER,ZNSYS F2-4 2-BED EAST,FAN:ONOFF,FAN 6,ZNSYS F2-4 2-BED EAST HEATING COIL OUTLET NODE,ZNSYS F2-4 2-BED EAST OUTLET NODE,Air Nodes
 Component Set,103,ZONEHVAC:PACKAGEDTERMINALAIRCONDITIONER,PROPNOCLG ZNSYS-6,FAN:ONOFF,PROPNOCLG FAN-6,PROPNOCLG ZNSYS-6 HEATING COIL OUTLET NODE,PROPNOCLG ZNSYS-6 OUTLET NODE,Air Nodes
 Component Set,104,ZONEHVAC:PACKAGEDTERMINALAIRCONDITIONER,ZNSYS F2-4 2-BED WEST,FAN:ONOFF,FAN 7,ZNSYS F2-4 2-BED WEST HEATING COIL OUTLET NODE,ZNSYS F2-4 2-BED WEST OUTLET NODE,Air Nodes
 Component Set,105,ZONEHVAC:PACKAGEDTERMINALAIRCONDITIONER,PROPNOCLG ZNSYS-7,FAN:ONOFF,PROPNOCLG FAN-7,PROPNOCLG ZNSYS-7 HEATING COIL OUTLET NODE,PROPNOCLG ZNSYS-7 OUTLET NODE,Air Nodes
 Component Set,106,ZONEHVAC:PACKAGEDTERMINALAIRCONDITIONER,ZNSYS F2-4 3-BED NE,FAN:ONOFF,FAN 8,ZNSYS F2-4 3-BED NE HEATING COIL OUTLET NODE,ZNSYS F2-4 3-BED NE OUTLET NODE,Air Nodes
 Component Set,107,ZONEHVAC:PACKAGEDTERMINALAIRCONDITIONER,PROPNOCLG ZNSYS-8,FAN:ONOFF,PROPNOCLG FAN-8,PROPNOCLG ZNSYS-8 HEATING COIL OUTLET NODE,PROPNOCLG ZNSYS-8 OUTLET NODE,Air Nodes
 Component Set,108,ZONEHVAC:PACKAGEDTERMINALAIRCONDITIONER,ZNSYS F2-4 3-BED NW,FAN:ONOFF,FAN 9,ZNSYS F2-4 3-BED NW HEATING COIL OUTLET NODE,ZNSYS F2-4 3-BED NW OUTLET NODE,Air Nodes
 Component Set,109,ZONEHVAC:PACKAGEDTERMINALAIRCONDITIONER,PROPNOCLG ZNSYS-9,FAN:ONOFF,PROPNOCLG FAN-9,PROPNOCLG ZNSYS-9 HEATING COIL OUTLET NODE,PROPNOCLG ZNSYS-9 OUTLET NODE,Air Nodes
 Component Set,110,ZONEHVAC:PACKAGEDTERMINALAIRCONDITIONER,PROPNOCLG ZNSYS-12,FAN:ONOFF,PROPNOCLG FAN-12,PROPNOCLG ZNSYS-12 HEATING COIL OUTLET NODE,PROPNOCLG ZNSYS-12 OUTLET NODE,Air Nodes
 Component Set,111,ZONEHVAC:PACKAGEDTERMINALAIRCONDITIONER,ZNSYS F2-4 STUDIO SE,FAN:ONOFF,FAN 10,ZNSYS F2-4 STUDIO SE HEATING COIL OUTLET NODE,ZNSYS F2-4 STUDIO SE OUTLET NODE,Air Nodes
 Component Set,112,ZONEHVAC:PACKAGEDTERMINALAIRCONDITIONER,PROPNOCLG ZNSYS-10,FAN:ONOFF,PROPNOCLG FAN-10,PROPNOCLG ZNSYS-10 HEATING COIL OUTLET NODE,PROPNOCLG ZNSYS-10 OUTLET NODE,Air Nodes
 Component Set,113,ZONEHVAC:PACKAGEDTERMINALAIRCONDITIONER,ZNSYS F2-4 STUDIO SW,FAN:ONOFF,FAN 11,ZNSYS F2-4 STUDIO SW HEATING COIL OUTLET NODE,ZNSYS F2-4 STUDIO SW OUTLET NODE,Air Nodes
 Component Set,114,ZONEHVAC:PACKAGEDTERMINALAIRCONDITIONER,PROPNOCLG ZNSYS-11,FAN:ONOFF,PROPNOCLG FAN-11,PROPNOCLG ZNSYS-11 HEATING COIL OUTLET NODE,PROPNOCLG ZNSYS-11 OUTLET NODE,Air Nodes
 Component Set,115,ZONEHVAC:PACKAGEDTERMINALAIRCONDITIONER,ZNSYS F5 1-BED CORE EAST,FAN:ONOFF,FAN 14,ZNSYS F5 1-BED CORE EAST HEATING COIL OUTLET NODE,ZNSYS F5 1-BED CORE EAST OUTLET NODE,Air Nodes
 Component Set,116,ZONEHVAC:PACKAGEDTERMINALAIRCONDITIONER,PROPNOCLG ZNSYS-15,FAN:ONOFF,PROPNOCLG FAN-15,PROPNOCLG ZNSYS-15 HEATING COIL OUTLET NODE,PROPNOCLG ZNSYS-15 OUTLET NODE,Air Nodes
 Component Set,117,ZONEHVAC:PACKAGEDTERMINALAIRCONDITIONER,ZNSYS F5 1-BED CORE N,FAN:ONOFF,FAN 12,ZNSYS F5 1-BED CORE N HEATING COIL OUTLET NODE,ZNSYS F5 1-BED CORE N OUTLET NODE,Air Nodes
 Component Set,118,ZONEHVAC:PACKAGEDTERMINALAIRCONDITIONER,PROPNOCLG ZNSYS-13,FAN:ONOFF,PROPNOCLG FAN-13,PROPNOCLG ZNSYS-13 HEATING COIL OUTLET NODE,PROPNOCLG ZNSYS-13 OUTLET NODE,Air Nodes
 Component Set,119,ZONEHVAC:PACKAGEDTERMINALAIRCONDITIONER,ZNSYS F5 1-BED CORE WEST,FAN:ONOFF,FAN 13,ZNSYS F5 1-BED CORE WEST HEATING COIL OUTLET NODE,ZNSYS F5 1-BED CORE WEST OUTLET NODE,Air Nodes
 Component Set,120,ZONEHVAC:PACKAGEDTERMINALAIRCONDITIONER,PROPNOCLG ZNSYS-14,FAN:ONOFF,PROPNOCLG FAN-14,PROPNOCLG ZNSYS-14 HEATING COIL OUTLET NODE,PROPNOCLG ZNSYS-14 OUTLET NODE,Air Nodes
 Component Set,121,ZONEHVAC:PACKAGEDTERMINALAIRCONDITIONER,ZNSYS F5 1-BED NORTH,FAN:ONOFF,FAN 15,ZNSYS F5 1-BED NORTH HEATING COIL OUTLET NODE,ZNSYS F5 1-BED NORTH OUTLET NODE,Air Nodes
 Component Set,122,ZONEHVAC:PACKAGEDTERMINALAIRCONDITIONER,PROPNOCLG ZNSYS-16,FAN:ONOFF,PROPNOCLG FAN-16,PROPNOCLG ZNSYS-16 HEATING COIL OUTLET NODE,PROPNOCLG ZNSYS-16 OUTLET NODE,Air Nodes
 Component Set,123,ZONEHVAC:PACKAGEDTERMINALAIRCONDITIONER,ZNSYS F5 2-BED CORE NE-NW,FAN:ONOFF,FAN 16,ZNSYS F5 2-BED CORE NE-NW HEATING COIL OUTLET NODE,ZNSYS F5 2-BED CORE NE-NW OUTLET NODE,Air Nodes
 Component Set,124,ZONEHVAC:PACKAGEDTERMINALAIRCONDITIONER,PROPNOCLG ZNSYS-17,FAN:ONOFF,PROPNOCLG FAN-17,PROPNOCLG ZNSYS-17 HEATING COIL OUTLET NODE,PROPNOCLG ZNSYS-17 OUTLET NODE,Air Nodes
[...]
 Non-Parent Node Connection,ZNSYS F2-4 2-BED WEST COOLING COIL OUTLET NODE,COIL:HEATING:FUEL,COILHTG 7,Inlet,1
 Non-Parent Node Connection,ZNSYS F2-4 2-BED WEST HEATING COIL OUTLET NODE,COIL:HEATING:FUEL,COILHTG 7,Outlet,1
 Non-Parent Node Connection,ZNSYS F2-4 3-BED NE COOLING COIL OUTLET NODE,COIL:HEATING:FUEL,COILHTG 8,Inlet,1
 Non-Parent Node Connection,ZNSYS F2-4 3-BED NE HEATING COIL OUTLET NODE,COIL:HEATING:FUEL,COILHTG 8,Outlet,1
 Non-Parent Node Connection,ZNSYS F2-4 3-BED NW COOLING COIL OUTLET NODE,COIL:HEATING:FUEL,COILHTG 9,Inlet,1
 Non-Parent Node Connection,ZNSYS F2-4 3-BED NW HEATING COIL OUTLET NODE,COIL:HEATING:FUEL,COILHTG 9,Outlet,1
 Non-Parent Node Connection,ZNSYS F2-4 STUDIO SE COOLING COIL OUTLET NODE,COIL:HEATING:FUEL,COILHTG 10,Inlet,1
 Non-Parent Node Connection,ZNSYS F2-4 STUDIO SE HEATING COIL OUTLET NODE,COIL:HEATING:FUEL,COILHTG 10,Outlet,1
 Non-Parent Node Connection,ZNSYS F2-4 STUDIO SW COOLING COIL OUTLET NODE,COIL:HEATING:FUEL,COILHTG 11,Inlet,1
 Non-Parent Node Connection,ZNSYS F2-4 STUDIO SW HEATING COIL OUTLET NODE,COIL:HEATING:FUEL,COILHTG 11,Outlet,1
 Non-Parent Node Connection,ZNSYS F5 1-BED CORE EAST COOLING COIL OUTLET NODE,COIL:HEATING:FUEL,COILHTG 14,Inlet,1
 Non-Parent Node Connection,ZNSYS F5 1-BED CORE EAST HEATING COIL OUTLET NODE,COIL:HEATING:FUEL,COILHTG 14,Outlet,1
 Non-Parent Node Connection,ZNSYS F5 1-BED CORE N COOLING COIL OUTLET NODE,COIL:HEATING:FUEL,COILHTG 12,Inlet,1
 Non-Parent Node Connection,ZNSYS F5 1-BED CORE N HEATING COIL OUTLET NODE,COIL:HEATING:FUEL,COILHTG 12,Outlet,1
 Non-Parent Node Connection,ZNSYS F5 1-BED CORE WEST COOLING COIL OUTLET NODE,COIL:HEATING:FUEL,COILHTG 13,Inlet,1
 Non-Parent Node Connection,ZNSYS F5 1-BED CORE WEST HEATING COIL OUTLET NODE,COIL:HEATING:FUEL,COILHTG 13,Outlet,1
 Non-Parent Node Connection,ZNSYS F5 1-BED NORTH COOLING COIL OUTLET NODE,COIL:HEATING:FUEL,COILHTG 15,Inlet,1
 Non-Parent Node Connection,ZNSYS F5 1-BED NORTH HEATING COIL OUTLET NODE,COIL:HEATING:FUEL,COILHTG 15,Outlet,1
 Non-Parent Node Connection,ZNSYS F5 2-BED CORE NE-NW COOLING COIL OUTLET NODE,COIL:HEATING:FUEL,COILHTG 16,Inlet,1
 Non-Parent Node Connection,ZNSYS F5 2-BED CORE NE-NW HEATING COIL OUTLET NODE,COIL:HEATING:FUEL,COILHTG 16,Outlet,1
 Non-Parent Node Connection,ZNSYS F5 2-BED EAST COOLING COIL OUTLET NODE,COIL:HEATING:FUEL,COILHTG 17,Inlet,1
 Non-Parent Node Connection,ZNSYS F5 2-BED EAST HEATING COIL OUTLET NODE,COIL:HEATING:FUEL,COILHTG 17,Outlet,1
 Non-Parent Node Connection,ZNSYS F5 2-BED WEST COOLING COIL OUTLET NODE,COIL:HEATING:FUEL,COILHTG 18,Inlet,1
 Non-Parent Node Connection,ZNSYS F5 2-BED WEST HEATING COIL OUTLET NODE,COIL:HEATING:FUEL,COILHTG 18,Outlet,1
 Non-Parent Node Connection,ZNSYS F5 3-BED NE COOLING COIL OUTLET NODE,COIL:HEATING:FUEL,COILHTG 19,Inlet,1
 Non-Parent Node Connection,ZNSYS F5 3-BED NE HEATING COIL OUTLET NODE,COIL:HEATING:FUEL,COILHTG 19,Outlet,1
 Non-Parent Node Connection,ZNSYS F5 3-BED NW COOLING COIL OUTLET NODE,COIL:HEATING:FUEL,COILHTG 20,Inlet,1
 Non-Parent Node Connection,ZNSYS F5 3-BED NW HEATING COIL OUTLET NODE,COIL:HEATING:FUEL,COILHTG 20,Outlet,1
 Non-Parent Node Connection,ZNSYS F5 STUDIO SE COOLING COIL OUTLET NODE,COIL:HEATING:FUEL,COILHTG 21,Inlet,1
 Non-Parent Node Connection,ZNSYS F5 STUDIO SE HEATING COIL OUTLET NODE,COIL:HEATING:FUEL,COILHTG 21,Outlet,1
 Non-Parent Node Connection,ZNSYS F5 STUDIO SW COOLING COIL OUTLET NODE,COIL:HEATING:FUEL,COILHTG 22,Inlet,1
 Non-Parent Node Connection,ZNSYS F5 STUDIO SW HEATING COIL OUTLET NODE,COIL:HEATING:FUEL,COILHTG 22,Outlet,1
 Non-Parent Node Connection,ZNSYS F2-4 1-BED CORE EAST INLET NODE,COIL:COOLING:DX:SINGLESPEED,COILCOOLING 3,Inlet,1
 Non-Parent Node Connection,ZNSYS F2-4 1-BED CORE EAST COOLING COIL OUTLET NODE,COIL:COOLING:DX:SINGLESPEED,COILCOOLING 3,Outlet,1
 Non-Parent Node Connection,PROPNOCLG ZNSYS-3 INLET NODE,COIL:COOLING:DX:SINGLESPEED,PROPNOCLG COILCLG-3,Inlet,1
 Non-Parent Node Connection,PROPNOCLG ZNSYS-3 COOLING COIL OUTLET NODE,COIL:COOLING:DX:SINGLESPEED,PROPNOCLG COILCLG-3,Outlet,1
 Non-Parent Node Connection,ZNSYS F2-4 1-BED CORE N INLET NODE,COIL:COOLING:DX:SINGLESPEED,COILCOOLING 1,Inlet,1
 Non-Parent Node Connection,ZNSYS F2-4 1-BED CORE N COOLING COIL OUTLET NODE,COIL:COOLING:DX:SINGLESPEED,COILCOOLING 1,Outlet,1
 Non-Parent Node Connection,PROPNOCLG ZNSYS INLET NODE,COIL:COOLING:DX:SINGLESPEED,PROPNOCLG COILCLG,Inlet,1
 Non-Parent Node Connection,PROPNOCLG ZNSYS COOLING COIL OUTLET NODE,COIL:COOLING:DX:SINGLESPEED,PROPNOCLG COILCLG,Outlet,1
 Non-Parent Node Connection,ZNSYS F2-4 1-BED CORE WEST INLET NODE,COIL:COOLING:DX:SINGLESPEED,COILCOOLING 2,Inlet,1
 Non-Parent Node Connection,ZNSYS F2-4 1-BED CORE WEST COOLING COIL OUTLET NODE,COIL:COOLING:DX:SINGLESPEED,COILCOOLING 2,Outlet,1
 Non-Parent Node Connection,PROPNOCLG ZNSYS-2 INLET NODE,COIL:COOLING:DX:SINGLESPEED,PROPNOCLG COILCLG-2,Inlet,1
 Non-Parent Node Connection,PROPNOCLG ZNSYS-2 COOLING COIL OUTLET NODE,COIL:COOLING:DX:SINGLESPEED,PROPNOCLG COILCLG-2,Outlet,1
 Non-Parent Node Connection,ZNSYS F2-4 1-BED NORTH INLET NODE,COIL:COOLING:DX:SINGLESPEED,COILCOOLING 4,Inlet,1
 Non-Parent Node Connection,ZNSYS F2-4 1-BED NORTH COOLING COIL OUTLET NODE,COIL:COOLING:DX:SINGLESPEED,COILCOOLING 4,Outlet,1
 Non-Parent Node Connection,PROPNOCLG ZNSYS-4 INLET NODE,COIL:COOLING:DX:SINGLESPEED,PROPNOCLG COILCLG-4,Inlet,1
 Non-Parent Node Connection,PROPNOCLG ZNSYS-4 COOLING COIL OUTLET NODE,COIL:COOLING:DX:SINGLESPEED,PROPNOCLG COILCLG-4,Outlet,1
 Non-Parent Node Connection,ZNSYS F2-4 2-BED CORE NE-NW INLET NODE,COIL:COOLING:DX:SINGLESPEED,COILCOOLING 5,Inlet,1
 Non-Parent Node Connection,ZNSYS F2-4 2-BED CORE NE-NW COOLING COIL OUTLET NODE,COIL:COOLING:DX:SINGLESPEED,COILCOOLING 5,Outlet,1
 Non-Parent Node Connection,PROPNOCLG ZNSYS-5 INLET NODE,COIL:COOLING:DX:SINGLESPEED,PROPNOCLG COILCLG-5,Inlet,1
 Non-Parent Node Connection,PROPNOCLG ZNSYS-5 COOLING COIL OUTLET NODE,COIL:COOLING:DX:SINGLESPEED,PROPNOCLG COILCLG-5,Outlet,1
 Non-Parent Node Connection,ZNSYS F2-4 2-BED EAST INLET NODE,COIL:COOLING:DX:SINGLESPEED,COILCOOLING 6,Inlet,1
 Non-Parent Node Connection,ZNSYS F2-4 2-BED EAST COOLING COIL OUTLET NODE,COIL:COOLING:DX:SINGLESPEED,COILCOOLING 6,Outlet,1
 Non-Parent Node Connection,PROPNOCLG ZNSYS-6 INLET NODE,COIL:COOLING:DX:SINGLESPEED,PROPNOCLG COILCLG-6,Inlet,1
 Non-Parent Node Connection,PROPNOCLG ZNSYS-6 COOLING COIL OUTLET NODE,COIL:COOLING:DX:SINGLESPEED,PROPNOCLG COILCLG-6,Outlet,1
 Non-Parent Node Connection,ZNSYS F2-4 2-BED WEST INLET NODE,COIL:COOLING:DX:SINGLESPEED,COILCOOLING 7,Inlet,1
 Non-Parent Node Connection,ZNSYS F2-4 2-BED WEST COOLING COIL OUTLET NODE,COIL:COOLING:DX:SINGLESPEED,COILCOOLING 7,Outlet,1
 Non-Parent Node Connection,PROPNOCLG ZNSYS-7 INLET NODE,COIL:COOLING:DX:SINGLESPEED,PROPNOCLG COILCLG-7,Inlet,1
 Non-Parent Node Connection,PROPNOCLG ZNSYS-7 COOLING COIL OUTLET NODE,COIL:COOLING:DX:SINGLESPEED,PROPNOCLG COILCLG-7,Outlet,1
 Non-Parent Node Connection,ZNSYS F2-4 3-BED NE INLET NODE,COIL:COOLING:DX:SINGLESPEED,COILCOOLING 8,Inlet,1
 Non-Parent Node Connection,ZNSYS F2-4 3-BED NE COOLING COIL OUTLET NODE,COIL:COOLING:DX:SINGLESPEED,COILCOOLING 8,Outlet,1
 Non-Parent Node Connection,PROPNOCLG ZNSYS-8 INLET NODE,COIL:COOLING:DX:SINGLESPEED,PROPNOCLG COILCLG-8,Inlet,1
 Non-Parent Node Connection,PROPNOCLG ZNSYS-8 COOLING COIL OUTLET NODE,COIL:COOLING:DX:SINGLESPEED,PROPNOCLG COILCLG-8,Outlet,1
 Non-Parent Node Connection,ZNSYS F2-4 3-BED NW INLET NODE,COIL:COOLING:DX:SINGLESPEED,COILCOOLING 9,Inlet,1
 Non-Parent Node Connection,ZNSYS F2-4 3-BED NW COOLING COIL OUTLET NODE,COIL:COOLING:DX:SINGLESPEED,COILCOOLING 9,Outlet,1
 Non-Parent Node Connection,PROPNOCLG ZNSYS-9 INLET NODE,COIL:COOLING:DX:SINGLESPEED,PROPNOCLG COILCLG-9,Inlet,1
 Non-Parent Node Connection,PROPNOCLG ZNSYS-9 COOLING COIL OUTLET NODE,COIL:COOLING:DX:SINGLESPEED,PROPNOCLG COILCLG-9,Outlet,1
 Non-Parent Node Connection,PROPNOCLG ZNSYS-12 INLET NODE,COIL:COOLING:DX:SINGLESPEED,PROPNOCLG COILCLG-12,Inlet,1
 Non-Parent Node Connection,PROPNOCLG ZNSYS-12 COOLING COIL OUTLET NODE,COIL:COOLING:DX:SINGLESPEED,PROPNOCLG COILCLG-12,Outlet,1
 Non-Parent Node Connection,ZNSYS F2-4 STUDIO SE INLET NODE,COIL:COOLING:DX:SINGLESPEED,COILCOOLING 10,Inlet,1
 Non-Parent Node Connection,ZNSYS F2-4 STUDIO SE COOLING COIL OUTLET NODE,COIL:COOLING:DX:SINGLESPEED,COILCOOLING 10,Outlet,1
 Non-Parent Node Connection,PROPNOCLG ZNSYS-10 INLET NODE,COIL:COOLING:DX:SINGLESPEED,PROPNOCLG COILCLG-10,Inlet,1
 Non-Parent Node Connection,PROPNOCLG ZNSYS-10 COOLING COIL OUTLET NODE,COIL:COOLING:DX:SINGLESPEED,PROPNOCLG COILCLG-10,Outlet,1
 Non-Parent Node Connection,ZNSYS F2-4 STUDIO SW INLET NODE,COIL:COOLING:DX:SINGLESPEED,COILCOOLING 11,Inlet,1
 Non-Parent Node Connection,ZNSYS F2-4 STUDIO SW COOLING COIL OUTLET NODE,COIL:COOLING:DX:SINGLESPEED,COILCOOLING 11,Outlet,1
 Non-Parent Node Connection,PROPNOCLG ZNSYS-11 INLET NODE,COIL:COOLING:DX:SINGLESPEED,PROPNOCLG COILCLG-11,Inlet,1
 Non-Parent Node Connection,PROPNOCLG ZNSYS-11 COOLING COIL OUTLET NODE,COIL:COOLING:DX:SINGLESPEED,PROPNOCLG COILCLG-11,Outlet,1
 Non-Parent Node Connection,ZNSYS F5 1-BED CORE EAST INLET NODE,COIL:COOLING:DX:SINGLESPEED,COILCOOLING 14,Inlet,1
 Non-Parent Node Connection,ZNSYS F5 1-BED CORE EAST COOLING COIL OUTLET NODE,COIL:COOLING:DX:SINGLESPEED,COILCOOLING 14,Outlet,1
 Non-Parent Node Connection,PROPNOCLG ZNSYS-15 INLET NODE,COIL:COOLING:DX:SINGLESPEED,PROPNOCLG COILCLG-15,Inlet,1
 Non-Parent Node Connection,PROPNOCLG ZNSYS-15 COOLING COIL OUTLET NODE,COIL:COOLING:DX:SINGLESPEED,PROPNOCLG COILCLG-15,Outlet,1
 Non-Parent Node Connection,ZNSYS F5 1-BED CORE N INLET NODE,COIL:COOLING:DX:SINGLESPEED,COILCOOLING 12,Inlet,1
 Non-Parent Node Connection,ZNSYS F5 1-BED CORE N COOLING COIL OUTLET NODE,COIL:COOLING:DX:SINGLESPEED,COILCOOLING 12,Outlet,1
 Non-Parent Node Connection,PROPNOCLG ZNSYS-13 INLET NODE,COIL:COOLING:DX:SINGLESPEED,PROPNOCLG COILCLG-13,Inlet,1
 Non-Parent Node Connection,PROPNOCLG ZNSYS-13 COOLING COIL OUTLET NODE,COIL:COOLING:DX:SINGLESPEED,PROPNOCLG COILCLG-13,Outlet,1
 Non-Parent Node Connection,ZNSYS F5 1-BED CORE WEST INLET NODE,COIL:COOLING:DX:SINGLESPEED,COILCOOLING 13,Inlet,1
 Non-Parent Node Connection,ZNSYS F5 1-BED CORE WEST COOLING COIL OUTLET NODE,COIL:COOLING:DX:SINGLESPEED,COILCOOLING 13,Outlet,1
 Non-Parent Node Connection,PROPNOCLG ZNSYS-14 INLET NODE,COIL:COOLING:DX:SINGLESPEED,PROPNOCLG COILCLG-14,Inlet,1
 Non-Parent Node Connection,PROPNOCLG ZNSYS-14 COOLING COIL OUTLET NODE,COIL:COOLING:DX:SINGLESPEED,PROPNOCLG COILCLG-14,Outlet,1
 Non-Parent Node Connection,ZNSYS F5 1-BED NORTH INLET NODE,COIL:COOLING:DX:SINGLESPEED,COILCOOLING 15,Inlet,1
 Non-Parent Node Connection,ZNSYS F5 1-BED NORTH COOLING COIL OUTLET NODE,COIL:COOLING:DX:SINGLESPEED,COILCOOLING 15,Outlet,1
 Non-Parent Node Connection,PROPNOCLG ZNSYS-16 INLET NODE,COIL:COOLING:DX:SINGLESPEED,PROPNOCLG COILCLG-16,Inlet,1
 Non-Parent Node Connection,PROPNOCLG ZNSYS-16 COOLING COIL OUTLET NODE,COIL:COOLING:DX:SINGLESPEED,PROPNOCLG COILCLG-16,Outlet,1
 Non-Parent Node Connection,ZNSYS F5 2-BED CORE NE-NW INLET NODE,COIL:COOLING:DX:SINGLESPEED,COILCOOLING 16,Inlet,1
 Non-Parent Node Connection,ZNSYS F5 2-BED CORE NE-NW COOLING COIL OUTLET NODE,COIL:COOLING:DX:SINGLESPEED,COILCOOLING 16,Outlet,1
 Non-Parent Node Connection,PROPNOCLG ZNSYS-17 INLET NODE,COIL:COOLING:DX:SINGLESPEED,PROPNOCLG COILCLG-17,Inlet,1
 Non-Parent Node Connection,PROPNOCLG ZNSYS-17 COOLING COIL OUTLET NODE,COIL:COOLING:DX:SINGLESPEED,PROPNOCLG COILCLG-17,Outlet,1
 Non-Parent Node Connection,ZNSYS F5 2-BED EAST INLET NODE,COIL:COOLING:DX:SINGLESPEED,COILCOOLING 17,Inlet,1
 Non-Parent Node Connection,ZNSYS F5 2-BED EAST COOLING COIL OUTLET NODE,COIL:COOLING:DX:SINGLESPEED,COILCOOLING 17,Outlet,1
 Non-Parent Node Connection,PROPNOCLG ZNSYS-18 INLET NODE,COIL:COOLING:DX:SINGLESPEED,PROPNOCLG COILCLG-18,Inlet,1
 Non-Parent Node Connection,PROPNOCLG ZNSYS-18 COOLING COIL OUTLET NODE,COIL:COOLING:DX:SINGLESPEED,PROPNOCLG COILCLG-18,Outlet,1
 Non-Parent Node Connection,ZNSYS F5 2-BED WEST INLET NODE,COIL:COOLING:DX:SINGLESPEED,COILCOOLING 18,Inlet,1
 Non-Parent Node Connection,ZNSYS F5 2-BED WEST COOLING COIL OUTLET NODE,COIL:COOLING:DX:SINGLESPEED,COILCOOLING 18,Outlet,1
 Non-Parent Node Connection,PROPNOCLG ZNSYS-19 INLET NODE,COIL:COOLING:DX:SINGLESPEED,PROPNOCLG COILCLG-19,Inlet,1
 Non-Parent Node Connection,PROPNOCLG ZNSYS-19 COOLING COIL OUTLET NODE,COIL:COOLING:DX:SINGLESPEED,PROPNOCLG COILCLG-19,Outlet,1
 Non-Parent Node Connection,ZNSYS F5 3-BED NE INLET NODE,COIL:COOLING:DX:SINGLESPEED,COILCOOLING 19,Inlet,1
 Non-Parent Node Connection,ZNSYS F5 3-BED NE COOLING COIL OUTLET NODE,COIL:COOLING:DX:SINGLESPEED,COILCOOLING 19,Outlet,1
 Non-Parent Node Connection,PROPNOCLG ZNSYS-20 INLET NODE,COIL:COOLING:DX:SINGLESPEED,PROPNOCLG COILCLG-20,Inlet,1
 Non-Parent Node Connection,PROPNOCLG ZNSYS-20 COOLING COIL OUTLET NODE,COIL:COOLING:DX:SINGLESPEED,PROPNOCLG COILCLG-20,Outlet,1
 Non-Parent Node Connection,ZNSYS F5 3-BED NW INLET NODE,COIL:COOLING:DX:SINGLESPEED,COILCOOLING 20,Inlet,1
 Non-Parent Node Connection,ZNSYS F5 3-BED NW COOLING COIL OUTLET NODE,COIL:COOLING:DX:SINGLESPEED,COILCOOLING 20,Outlet,1
 Non-Parent Node Connection,PROPNOCLG ZNSYS-21 INLET NODE,COIL:COOLING:DX:SINGLESPEED,PROPNOCLG COILCLG-21,Inlet,1
 Non-Parent Node Connection,PROPNOCLG ZNSYS-21 COOLING COIL OUTLET NODE,COIL:COOLING:DX:SINGLESPEED,PROPNOCLG COILCLG-21,Outlet,1
 Non-Parent Node Connection,PROPNOCLG ZNSYS-24 INLET NODE,COIL:COOLING:DX:SINGLESPEED,PROPNOCLG COILCLG-24,Inlet,1
 Non-Parent Node Connection,PROPNOCLG ZNSYS-24 COOLING COIL OUTLET NODE,COIL:COOLING:DX:SINGLESPEED,PROPNOCLG COILCLG-24,Outlet,1
 Non-Parent Node Connection,ZNSYS F5 STUDIO SE INLET NODE,COIL:COOLING:DX:SINGLESPEED,COILCOOLING 21,Inlet,1
 Non-Parent Node Connection,ZNSYS F5 STUDIO SE COOLING COIL OUTLET NODE,COIL:COOLING:DX:SINGLESPEED,COILCOOLING 21,Outlet,1
 Non-Parent Node Connection,PROPNOCLG ZNSYS-22 INLET NODE,COIL:COOLING:DX:SINGLESPEED,PROPNOCLG COILCLG-22,Inlet,1
 Non-Parent Node Connection,PROPNOCLG ZNSYS-22 COOLING COIL OUTLET NODE,COIL:COOLING:DX:SINGLESPEED,PROPNOCLG COILCLG-22,Outlet,1
 Non-Parent Node Connection,ZNSYS F5 STUDIO SW INLET NODE,COIL:COOLING:DX:SINGLESPEED,COILCOOLING 22,Inlet,1
 Non-Parent Node Connection,ZNSYS F5 STUDIO SW COOLING COIL OUTLET NODE,COIL:COOLING:DX:SINGLESPEED,COILCOOLING 22,Outlet,1
 Non-Parent Node Connection,PROPNOCLG ZNSYS-23 INLET NODE,COIL:COOLING:DX:SINGLESPEED,PROPNOCLG COILCLG-23,Inlet,1
 Non-Parent Node Connection,PROPNOCLG ZNSYS-23 COOLING COIL OUTLET NODE,COIL:COOLING:DX:SINGLESPEED,PROPNOCLG COILCLG-23,Outlet,1
 Non-Parent Node Connection,DOAS1 OACTRL OA SYSTEM MIXED AIR NODE,COIL:COOLING:DX:SINGLESPEED,DOAS1 COILCLG,Inlet,1
 Non-Parent Node Connection,DOAS1 COILCLG OUTLET NODE,COIL:COOLING:DX:SINGLESPEED,DOAS1 COILCLG,Outlet,1
 Non-Parent Node Connection,DOAS1 COILCLG OUTLET NODE,COIL:HEATING:DX:SINGLESPEED,DOAS1 COILHTG,Inlet,1
 Non-Parent Node Connection,DOAS1 COILHTG OUTLET NODE,COIL:HEATING:DX:SINGLESPEED,DOAS1 COILHTG,Outlet,1
 Non-Parent Node Connection,BASESYS5 OACTRL OA SYSTEM MIXED AIR NODE,COIL:COOLING:DX:TWOSPEED,BASESYS5 COILCLG,Inlet,1
 Non-Parent Node Connection,BASESYS5 COILCLG OUTLET NODE,COIL:COOLING:DX:TWOSPEED,BASESYS5 COILCLG,Outlet,1
 Non-Parent Node Connection,BASESYS5 F1 ZONE MIXER OUTLET NODE,AIRLOOPHVAC:ZONEMIXER,BASESYS5 F1 ZONE MIXER,Outlet,1
 Non-Parent Node Connection,THERMAL ZONE: F1 BUSINESS CENTER RETURN AIR NODE,AIRLOOPHVAC:ZONEMIXER,BASESYS5 F1 ZONE MIXER,Inlet,1
 Non-Parent Node Connection,THERMAL ZONE: F1 CORRIDOR RETURN AIR NODE,AIRLOOPHVAC:ZONEMIXER,BASESYS5 F1 ZONE MIXER,Inlet,1
 Non-Parent Node Connection,THERMAL ZONE: F1 LOUNGE RETURN AIR NODE,AIRLOOPHVAC:ZONEMIXER,BASESYS5 F1 ZONE MIXER,Inlet,1
 Non-Parent Node Connection,THERMAL ZONE: F1 FITNESS CENTER RETURN AIR NODE,AIRLOOPHVAC:ZONEMIXER,BASESYS5 F1 ZONE MIXER,Inlet,1
 Non-Parent Node Connection,THERMAL ZONE: F1 LEASING OFFICE RETURN AIR NODE,AIRLOOPHVAC:ZONEMIXER,BASESYS5 F1 ZONE MIXER,Inlet,1
 Non-Parent Node Connection,THERMAL ZONE: F1 MECHANICAL ROOM RETURN AIR NODE,AIRLOOPHVAC:ZONEMIXER,BASESYS5 F1 ZONE MIXER,Inlet,1
 Non-Parent Node Connection,THERMAL ZONE: F1 RETAIL N-NW RETURN AIR NODE,AIRLOOPHVAC:ZONEMIXER,BASESYS5 F1 ZONE MIXER,Inlet,1
 Non-Parent Node Connection,THERMAL ZONE: F1 RETAIL NE RETURN AIR NODE,AIRLOOPHVAC:ZONEMIXER,BASESYS5 F1 ZONE MIXER,Inlet,1
 Non-Parent Node Connection,THERMAL ZONE: F1 RETAIL SE RETURN AIR NODE,AIRLOOPHVAC:ZONEMIXER,BASESYS5 F1 ZONE MIXER,Inlet,1
 Non-Parent Node Connection,THERMAL ZONE: F1 RETAIL SW RETURN AIR NODE,AIRLOOPHVAC:ZONEMIXER,BASESYS5 F1 ZONE MIXER,Inlet,1
 Non-Parent Node Connection,DOAS1 ZONE MIXER OUTLET NODE,AIRLOOPHVAC:ZONEMIXER,DOAS1 ZONE MIXER,Outlet,1
 Non-Parent Node Connection,THERMAL ZONE: F2-4 CORRIDOR RETURN AIR NODE,AIRLOOPHVAC:ZONEMIXER,DOAS1 ZONE MIXER,Inlet,1
 Non-Parent Node Connection,THERMAL ZONE: F5 CORRIDOR RETURN AIR NODE,AIRLOOPHVAC:ZONEMIXER,DOAS1 ZONE MIXER,Inlet,1
 Non-Parent Node Connection,BASESYS5 OACTRL OA SYSTEM MIXED AIR NODE,OUTDOORAIR:MIXER,BASESYS5 OACTRL OA SYSTEM OUTDOOR AIR MIXER,Outlet,1
 Non-Parent Node Connection,BASESYS5 OACTRL OA SYSTEM OA NODE,OUTDOORAIR:MIXER,BASESYS5 OACTRL OA SYSTEM OUTDOOR AIR MIXER,Inlet,1
 Non-Parent Node Connection,BASESYS5 OACTRL OA SYSTEM RELIEF NODE,OUTDOORAIR:MIXER,BASESYS5 OACTRL OA SYSTEM OUTDOOR AIR MIXER,ReliefAir,1
 Non-Parent Node Connection,BASESYS5 F1 SUPPLY SIDE (RETURN AIR) INLET NODE,OUTDOORAIR:MIXER,BASESYS5 OACTRL OA SYSTEM OUTDOOR AIR MIXER,Inlet,1
 Non-Parent Node Connection,DOAS1 OACTRL OA SYSTEM MIXED AIR NODE,OUTDOORAIR:MIXER,DOAS1 OACTRL OA SYSTEM OUTDOOR AIR MIXER,Outlet,1
 Non-Parent Node Connection,DOAS1 OACTRL OA SYSTEM OA NODE,OUTDOORAIR:MIXER,DOAS1 OACTRL OA SYSTEM OUTDOOR AIR MIXER,Inlet,1
 Non-Parent Node Connection,DOAS1 OACTRL OA SYSTEM RELIEF NODE,OUTDOORAIR:MIXER,DOAS1 OACTRL OA SYSTEM OUTDOOR AIR MIXER,ReliefAir,1
 Non-Parent Node Connection,DOAS1 SUPPLY SIDE (RETURN AIR) INLET NODE,OUTDOORAIR:MIXER,DOAS1 OACTRL OA SYSTEM OUTDOOR AIR MIXER,Inlet,1
 Non-Parent Node Connection,BASESYS5 OACTRL OA SYSTEM MIXED AIR NODE,CONTROLLER:OUTDOORAIR,BASESYS5 OACTRL,Sensor,1
 Non-Parent Node Connection,BASESYS5 OACTRL OA SYSTEM OA NODE,CONTROLLER:OUTDOORAIR,BASESYS5 OACTRL,Actuator,1
 Non-Parent Node Connection,BASESYS5 OACTRL OA SYSTEM RELIEF NODE,CONTROLLER:OUTDOORAIR,BASESYS5 OACTRL,Actuator,1
 Non-Parent Node Connection,BASESYS5 F1 SUPPLY SIDE (RETURN AIR) INLET NODE,CONTROLLER:OUTDOORAIR,BASESYS5 OACTRL,Sensor,1
 Non-Parent Node Connection,DOAS1 OACTRL OA SYSTEM MIXED AIR NODE,CONTROLLER:OUTDOORAIR,DOAS1 OACTRL,Sensor,1
 Non-Parent Node Connection,DOAS1 OACTRL OA SYSTEM OA NODE,CONTROLLER:OUTDOORAIR,DOAS1 OACTRL,Actuator,1
 Non-Parent Node Connection,DOAS1 OACTRL OA SYSTEM RELIEF NODE,CONTROLLER:OUTDOORAIR,DOAS1 OACTRL,Actuator,1
 Non-Parent Node Connection,DOAS1 SUPPLY SIDE (RETURN AIR) INLET NODE,CONTROLLER:OUTDOORAIR,DOAS1 OACTRL,Sensor,1
 Non-Parent Node Connection,BASE HW PUMP OUTLET NODE,BOILER:HOTWATER,BASE BLR,Inlet,1
 Non-Parent Node Connection,BASE BLR OUTLET NODE,BOILER:HOTWATER,BASE BLR,Outlet,1
 Non-Parent Node Connection,BASEHWSYSTEM SUPPLY SPLITTER OUTLET NODE 1,PUMP:VARIABLESPEED,BASE HW PUMP,Inlet,1
 Non-Parent Node Connection,BASE HW PUMP OUTLET NODE,PUMP:VARIABLESPEED,BASE HW PUMP,Outlet,1
 Non-Parent Node Connection,NONRESIDENTIAL ELEC DHW SYSTEM SUPPLY INLET NODE,PUMP:VARIABLESPEED,{67E54F3E-2BCE-4E32-B457-3509CE0633C3},Inlet,1
 Non-Parent Node Connection,{67E54F3E-2BCE-4E32-B457-3509CE0633C3} OUTLET NODE,PUMP:VARIABLESPEED,{67E54F3E-2BCE-4E32-B457-3509CE0633C3},Outlet,1
 Non-Parent Node Connection,NONRESIDENTIAL GAS DHW SYSTEM SUPPLY INLET NODE,PUMP:VARIABLESPEED,{06E23BF8-5339-4241-8527-42ED8EA44698},Inlet,1
 Non-Parent Node Connection,{06E23BF8-5339-4241-8527-42ED8EA44698} OUTLET NODE,PUMP:VARIABLESPEED,{06E23BF8-5339-4241-8527-42ED8EA44698},Outlet,1
